wecc10k_user.raw
@!IC,SBASE,REV,XFRRAT,NXFRAT,BASFRQ
0,  100.00, 35,     0,     1, 60.00     / PSS(R)E-35.1    MON, APR 27 2020  18:10
IEEE 25 BUS NETWORK
N-1-1 ANALYSIS DEMONSTRATION
GENERAL, THRSHZ=0.0001, PQBRAK=0.7, BLOWUP=5.0, MaxIsolLvls=4, CAMaxReptSln=20, ChkDupCntLbl=0
GAUSS, ITMX=100, ACCP=1.6, ACCQ=1.6, ACCM=1.0, TOL=0.0001
NEWTON, ITMXN=20, ACCN=1.0, TOLN=0.1, VCTOLQ=0.1, VCTOLV=0.00001, DVLIM=0.99, NDVFCT=0.99
ADJUST, ADJTHR=0.005, ACCTAP=1.0, TAPLIM=0.05, SWVBND=100.0, MXTPSS=99, MXSWIM=10
TYSL, ITMXTY=20, ACCTY=1.0, TOLTY=0.00001
SOLVER, FDNS, ACTAPS=0, AREAIN=0, PHSHFT=0, DCTAPS=1, SWSHNT=1, FLATST=0, VARLIM=99, NONDIV=0
RATING, 1, "RATE1 ", "RATING SET 1                    "
RATING, 2, "RATE2 ", "RATING SET 2                    "
RATING, 3, "RATE3 ", "RATING SET 3                    "
RATING, 4, "RATE4 ", "RATING SET 4                    "
RATING, 5, "RATE5 ", "RATING SET 5                    "
RATING, 6, "RATE6 ", "RATING SET 6                    "
RATING, 7, "RATE7 ", "RATING SET 7                    "
RATING, 8, "RATE8 ", "RATING SET 8                    "
RATING, 9, "RATE9 ", "RATING SET 9                    "
RATING,10, "RATE10", "RATING SET 10                   "
RATING,11, "RATE11", "RATING SET 11                   "
RATING,12, "RATE12", "RATING SET 12                   "
0 / END OF SYSTEM-WIDE DATA, BEGIN BUS DATA
@!   I,'NAME        ', BASKV, IDE,AREA,ZONE,OWNER, VM,        VA,    NVHI,   NVLO,   EVHI,   EVLO
10001, 'NEAH BAY 1', 138.00, 1, 1, 1, 1, 1.0116, -39.8436, 1.10, 0.90, 1.10, 0.90
10002, 'FORKS 1', 138.00, 1, 1, 1, 1, 1.0170, -37.0433, 1.10, 0.90, 1.10, 0.90
10003, 'OCEAN SHORES 1', 138.00, 1, 1, 1, 1, 1.0314, -34.0391, 1.10, 0.90, 1.10, 0.90
10004, 'WESTPORT 1', 138.00, 1, 1, 1, 1, 1.0325, -33.9262, 1.10, 0.90, 1.10, 0.90
10005, 'WESTPORT 2', 138.00, 1, 1, 1, 1, 1.0324, -33.9325, 1.10, 0.90, 1.10, 0.90
10006, 'LONG BEACH 1 1', 138.00, 1, 1, 1, 1, 1.0256, -35.8166, 1.10, 0.90, 1.10, 0.90
10007, 'LONG BEACH 1 2', 138.00, 1, 1, 1, 1, 1.0256, -35.8085, 1.10, 0.90, 1.10, 0.90
10008, 'OCEAN PARK 1', 138.00, 1, 1, 1, 1, 1.0243, -34.7419, 1.10, 0.90, 1.10, 0.90
10009, 'OCEAN PARK 2', 138.00, 1, 1, 1, 1, 1.0242, -34.7512, 1.10, 0.90, 1.10, 0.90
10010, 'HOQUIAM 1', 138.00, 1, 1, 1, 1, 1.0230, -34.8458, 1.10, 0.90, 1.10, 0.90
10011, 'PORT ANGELES 1 1', 138.00, 1, 1, 1, 1, 1.0074, -40.6036, 1.10, 0.90, 1.10, 0.90
10012, 'ABERDEEN 1 1', 345.00, 1, 1, 1, 1, 1.0354, -32.2652, 1.10, 0.90, 1.10, 0.90
10013, 'ABERDEEN 1 2', 138.00, 1, 1, 1, 1, 1.0282, -34.3271, 1.10, 0.90, 1.10, 0.90
10014, 'MONTESANO 1', 138.00, 1, 1, 1, 1, 1.0257, -34.6412, 1.10, 0.90, 1.10, 0.90
10015, 'MONTESANO 2', 138.00, 1, 1, 1, 1, 1.0255, -34.6543, 1.10, 0.90, 1.10, 0.90
10016, 'RAYMOND 1', 138.00, 1, 1, 1, 1, 1.0266, -32.2840, 1.10, 0.90, 1.10, 0.90
10017, 'RAYMOND 2', 138.00, 1, 1, 1, 1, 1.0265, -32.2993, 1.10, 0.90, 1.10, 0.90
10018, 'ELMA 1 1', 138.00, 1, 1, 1, 1, 1.0321, -35.3701, 1.10, 0.90, 1.10, 0.90
10019, 'PORT ANGELES 2 1', 345.00, 1, 1, 1, 1, 1.0386, -36.5408, 1.10, 0.90, 1.10, 0.90
10020, 'PORT ANGELES 2 2', 138.00, 1, 1, 1, 1, 1.0163, -39.0746, 1.10, 0.90, 1.10, 0.90
10021, 'CATHLAMET 1', 138.00, 1, 1, 1, 1, 1.0271, -31.8992, 1.10, 0.90, 1.10, 0.90
10022, 'SHELTON 1 1', 138.00, 1, 1, 1, 1, 1.0405, -35.6919, 1.10, 0.90, 1.10, 0.90
10023, 'SHELTON 2 1', 345.00, 1, 1, 1, 1, 1.0324, -33.2325, 1.10, 0.90, 1.10, 0.90
10024, 'SHELTON 2 2', 138.00, 1, 1, 1, 1, 1.0440, -35.6130, 1.10, 0.90, 1.10, 0.90
10025, 'ROCHESTER 1', 138.00, 1, 1, 1, 1, 1.0333, -32.7205, 1.10, 0.90, 1.10, 0.90
10026, 'FRIDAY HARBOR 1', 138.00, 1, 1, 1, 1, 1.0117, -41.0729, 1.10, 0.90, 1.10, 0.90
10027, 'SEQUIM 1 1', 138.00, 1, 1, 1, 1, 1.0039, -41.0724, 1.10, 0.90, 1.10, 0.90
10028, 'SEQUIM 1 2', 138.00, 1, 1, 1, 1, 1.0037, -41.0894, 1.10, 0.90, 1.10, 0.90
10029, 'SEQUIM 2 1', 138.00, 1, 1, 1, 1, 1.0089, -40.4556, 1.10, 0.90, 1.10, 0.90
10030, 'OLYMPIA 1 1', 138.00, 1, 1, 1, 1, 1.0372, -35.0523, 1.10, 0.90, 1.10, 0.90
10031, 'OLYMPIA 1 2', 138.00, 1, 1, 1, 1, 1.0371, -35.0737, 1.10, 0.90, 1.10, 0.90
10032, 'OLYMPIA 2 1', 138.00, 1, 1, 1, 1, 1.0308, -36.1171, 1.10, 0.90, 1.10, 0.90
10033, 'LONGVIEW 1 1', 138.00, 1, 1, 1, 1, 1.0168, -32.5579, 1.10, 0.90, 1.10, 0.90
10034, 'LONGVIEW 2 1', 138.00, 1, 1, 1, 1, 1.0157, -32.4260, 1.10, 0.90, 1.10, 0.90
10035, 'LONGVIEW 2 2', 138.00, 1, 1, 1, 1, 1.0151, -32.4548, 1.10, 0.90, 1.10, 0.90
10036, 'LONGVIEW 2 3', 138.00, 1, 1, 1, 1, 1.0163, -32.3930, 1.10, 0.90, 1.10, 0.90
10037, 'CHEHALIS 1 1', 138.00, 1, 1, 1, 1, 1.0338, -32.0931, 1.10, 0.90, 1.10, 0.90
10038, 'OLYMPIA 3 1', 138.00, 1, 1, 1, 1, 1.0357, -36.4002, 1.10, 0.90, 1.10, 0.90
10039, 'OLYMPIA 3 2', 138.00, 1, 1, 1, 1, 1.0359, -36.3809, 1.10, 0.90, 1.10, 0.90
10040, 'OLYMPIA 4 1', 138.00, 1, 1, 1, 1, 1.0302, -37.0841, 1.10, 0.90, 1.10, 0.90
10041, 'WINLOCK 1', 138.00, 1, 1, 1, 1, 1.0323, -31.3423, 1.10, 0.90, 1.10, 0.90
10042, 'CENTRALIA 1 1', 138.00, 1, 1, 1, 1, 1.0329, -33.1901, 1.10, 0.90, 1.10, 0.90
10043, 'BELFAIR 1', 138.00, 1, 1, 1, 1, 1.0218, -38.8110, 1.10, 0.90, 1.10, 0.90
10044, 'BELFAIR 2', 138.00, 1, 1, 1, 1, 1.0217, -38.8348, 1.10, 0.90, 1.10, 0.90
10045, 'CASTLE ROCK 1 1', 138.00, 1, 1, 1, 1, 1.0228, -32.1513, 1.10, 0.90, 1.10, 0.90
10046, 'OLYMPIA 5 1', 138.00, 1, 1, 1, 1, 1.0223, -34.5137, 1.10, 0.90, 1.10, 0.90
10047, 'OLYMPIA 5 2', 138.00, 1, 1, 1, 1, 1.0221, -34.5383, 1.10, 0.90, 1.10, 0.90
10048, 'OLYMPIA 6 1', 138.00, 1, 1, 1, 1, 1.0226, -34.4879, 1.10, 0.90, 1.10, 0.90
10049, 'OLYMPIA 6 2', 138.00, 1, 1, 1, 1, 1.0228, -34.4628, 1.10, 0.90, 1.10, 0.90
10050, 'OLYMPIA 6 3', 138.00, 1, 1, 1, 1, 1.0226, -34.4879, 1.10, 0.90, 1.10, 0.90
10051, 'EASTSOUND 1', 138.00, 1, 1, 1, 1, 1.0136, -40.8150, 1.10, 0.90, 1.10, 0.90
10052, 'EASTSOUND 2', 138.00, 1, 1, 1, 1, 1.0136, -40.8260, 1.10, 0.90, 1.10, 0.90
10053, 'OLYMPIA 7 1', 138.00, 1, 1, 1, 1, 1.0269, -33.6816, 1.10, 0.90, 1.10, 0.90
10054, 'PORT TOWNSEND 1', 138.00, 1, 1, 1, 1, 1.0047, -41.0586, 1.10, 0.90, 1.10, 0.90
10055, 'TENINO 1', 138.00, 1, 1, 1, 1, 1.0267, -34.7469, 1.10, 0.90, 1.10, 0.90
10056, 'TENINO 2', 138.00, 1, 1, 1, 1, 1.0268, -34.7381, 1.10, 0.90, 1.10, 0.90
10057, 'LACEY 1 1', 345.00, 1, 1, 1, 1, 1.0310, -32.3013, 1.10, 0.90, 1.10, 0.90
10058, 'LACEY 1 2', 138.00, 1, 1, 1, 1, 1.0223, -34.6708, 1.10, 0.90, 1.10, 0.90
10059, 'LACEY 1 3', 345.00, 1, 1, 1, 1, 1.0317, -32.2053, 1.10, 0.90, 1.10, 0.90
10060, 'LACEY 2 1', 138.00, 1, 1, 1, 1, 1.0201, -34.7556, 1.10, 0.90, 1.10, 0.90
10061, 'OLYMPIA 8 1', 138.00, 1, 1, 1, 1, 1.0261, -38.0730, 1.10, 0.90, 1.10, 0.90
10062, 'BREMERTON 1 1', 138.00, 1, 1, 1, 1, 1.0206, -39.8698, 1.10, 0.90, 1.10, 0.90
10063, 'BREMERTON 1 2', 138.00, 1, 1, 1, 1, 1.0208, -39.8507, 1.10, 0.90, 1.10, 0.90
10064, 'BREMERTON 1 3', 138.00, 1, 1, 1, 1, 1.0204, -39.8910, 1.10, 0.90, 1.10, 0.90
10065, 'BREMERTON 2 1', 138.00, 1, 1, 1, 1, 1.0198, -39.7030, 1.10, 0.90, 1.10, 0.90
10066, 'BREMERTON 2 2', 13.80, 1, 1, 1, 1, 1.0198, -39.7030, 1.10, 0.90, 1.10, 0.90
10067, 'BREMERTON 2 3', 13.80, 1, 1, 1, 1, 1.0198, -39.7030, 1.10, 0.90, 1.10, 0.90
10068, 'BREMERTON 2 4', 1.00, 1, 1, 1, 1, 1.0198, -39.7030, 1.10, 0.90, 1.10, 0.90
10069, 'KELSO 1', 138.00, 1, 1, 1, 1, 1.0128, -33.0151, 1.10, 0.90, 1.10, 0.90
10070, 'LAKEBAY 1 1', 138.00, 1, 1, 1, 1, 1.0241, -39.0192, 1.10, 0.90, 1.10, 0.90
10071, 'OLYMPIA 9 1', 138.00, 1, 1, 1, 1, 1.0258, -35.0094, 1.10, 0.90, 1.10, 0.90
10072, 'OLYMPIA 10 1', 138.00, 1, 1, 1, 1, 1.0201, -35.0995, 1.10, 0.90, 1.10, 0.90
10073, 'OLYMPIA 10 2', 138.00, 1, 1, 1, 1, 1.0197, -35.1202, 1.10, 0.90, 1.10, 0.90
10074, 'KALAMA 1', 138.00, 1, 1, 1, 1, 1.0143, -33.3662, 1.10, 0.90, 1.10, 0.90
10075, 'KALAMA 2', 138.00, 1, 1, 1, 1, 1.0142, -33.3746, 1.10, 0.90, 1.10, 0.90
10076, 'GIG HARBOR 1 1', 138.00, 1, 1, 1, 1, 1.0245, -38.1745, 1.10, 0.90, 1.10, 0.90
10077, 'VANCOUVER 1 1', 138.00, 1, 1, 1, 1, 1.0263, -34.8600, 1.10, 0.90, 1.10, 0.90
10078, 'SILVERDALE 1 1', 345.00, 1, 1, 1, 1, 1.0324, -34.3046, 1.10, 0.90, 1.10, 0.90
10079, 'SILVERDALE 1 2', 138.00, 1, 1, 1, 1, 1.0224, -38.1946, 1.10, 0.90, 1.10, 0.90
10080, 'SILVERDALE 1 3', 24.00, 1, 1, 1, 1, 1.0165, -43.7587, 1.10, 0.90, 1.10, 0.90
10081, 'SILVERDALE 1 4', 1.00, 1, 1, 1, 1, 1.0165, -43.7587, 1.10, 0.90, 1.10, 0.90
10082, 'SILVERDALE 2 1', 138.00, 1, 1, 1, 1, 1.0202, -39.0620, 1.10, 0.90, 1.10, 0.90
10083, 'SILVERDALE 2 2', 138.00, 1, 1, 1, 1, 1.0200, -39.0737, 1.10, 0.90, 1.10, 0.90
10084, 'BLAINE 1 1', 138.00, 1, 1, 1, 1, 1.0299, -38.1475, 1.10, 0.90, 1.10, 0.90
10085, 'BLAINE 1 2', 138.00, 1, 1, 1, 1, 1.0298, -38.1728, 1.10, 0.90, 1.10, 0.90
10086, 'BLAINE 1 3', 138.00, 1, 1, 1, 1, 1.0301, -38.1260, 1.10, 0.90, 1.10, 0.90
10087, 'PORT LUDLOW 1', 138.00, 1, 1, 1, 1, 1.0160, -39.8395, 1.10, 0.90, 1.10, 0.90
10088, 'PORT ORCHARD 1 1', 138.00, 1, 1, 1, 1, 1.0294, -39.3741, 1.10, 0.90, 1.10, 0.90
10089, 'PORT ORCHARD 1 2', 138.00, 1, 1, 1, 1, 1.0293, -39.3937, 1.10, 0.90, 1.10, 0.90
10090, 'PORT ORCHARD 2 1', 138.00, 1, 1, 1, 1, 1.0239, -39.4454, 1.10, 0.90, 1.10, 0.90
10091, 'RIDGEFIELD 1', 138.00, 1, 1, 1, 1, 1.0257, -33.7167, 1.10, 0.90, 1.10, 0.90
10092, 'VANCOUVER 2 1', 138.00, 1, 1, 1, 1, 1.0252, -34.9677, 1.10, 0.90, 1.10, 0.90
10093, 'VANCOUVER 3 1', 138.00, 1, 1, 1, 1, 1.0242, -35.7040, 1.10, 0.90, 1.10, 0.90
10094, 'STEILACOOM 1', 138.00, 1, 1, 1, 1, 1.0245, -38.3680, 1.10, 0.90, 1.10, 0.90
10095, 'STEILACOOM 2', 138.00, 1, 1, 1, 1, 1.0246, -38.3581, 1.10, 0.90, 1.10, 0.90
10096, 'STEILACOOM 3', 138.00, 1, 1, 1, 1, 1.0245, -38.3779, 1.10, 0.90, 1.10, 0.90
10097, 'WOODLAND 1 1', 138.00, 1, 1, 1, 1, 1.0267, -34.2301, 1.10, 0.90, 1.10, 0.90
10098, 'DUPONT 1', 138.00, 1, 1, 1, 1, 1.0217, -35.3097, 1.10, 0.90, 1.10, 0.90
10099, 'DUPONT 2', 138.00, 1, 1, 1, 1, 1.0218, -35.2982, 1.10, 0.90, 1.10, 0.90
10100, 'VANCOUVER 4 1', 138.00, 1, 1, 1, 1, 1.0339, -35.5409, 1.10, 0.90, 1.10, 0.90
10101, 'VANCOUVER 4 2', 138.00, 1, 1, 1, 1, 1.0341, -35.5228, 1.10, 0.90, 1.10, 0.90
10102, 'VANCOUVER 4 3', 138.00, 1, 1, 1, 1, 1.0337, -35.5607, 1.10, 0.90, 1.10, 0.90
10103, 'VANCOUVER 5 1', 138.00, 1, 1, 1, 1, 1.0284, -35.4225, 1.10, 0.90, 1.10, 0.90
10104, 'VANCOUVER 5 2', 138.00, 1, 1, 1, 1, 1.0281, -35.4524, 1.10, 0.90, 1.10, 0.90
10105, 'VANCOUVER 5 3', 138.00, 1, 1, 1, 1, 1.0287, -35.3898, 1.10, 0.90, 1.10, 0.90
10106, 'ANACORTES 1 1', 138.00, 1, 1, 1, 1, 1.0192, -39.7765, 1.10, 0.90, 1.10, 0.90
10107, 'COUPEVILLE 1', 138.00, 1, 1, 1, 1, 1.0246, -37.6485, 1.10, 0.90, 1.10, 0.90
10108, 'COUPEVILLE 2', 138.00, 1, 1, 1, 1, 1.0247, -37.6316, 1.10, 0.90, 1.10, 0.90
10109, 'COUPEVILLE 3', 138.00, 1, 1, 1, 1, 1.0246, -37.6485, 1.10, 0.90, 1.10, 0.90
10110, 'ONALASKA 1', 138.00, 1, 1, 1, 1, 1.0312, -33.8164, 1.10, 0.90, 1.10, 0.90
10111, 'ONALASKA 2', 138.00, 1, 1, 1, 1, 1.0312, -33.8096, 1.10, 0.90, 1.10, 0.90
10112, 'RAINIER 1 1', 138.00, 1, 1, 1, 1, 1.0278, -34.4609, 1.10, 0.90, 1.10, 0.90
10113, 'BREMERTON 3 1', 138.00, 1, 1, 1, 1, 1.0260, -38.9913, 1.10, 0.90, 1.10, 0.90
10114, 'BREMERTON 3 2', 138.00, 1, 1, 1, 1, 1.0257, -39.0086, 1.10, 0.90, 1.10, 0.90
10115, 'BREMERTON 4 1', 138.00, 1, 1, 1, 1, 1.0252, -38.9612, 1.10, 0.90, 1.10, 0.90
10116, 'OAK HARBOR 1 1', 138.00, 1, 1, 1, 1, 1.0362, -33.8123, 1.10, 0.90, 1.10, 0.90
10117, 'OAK HARBOR 2 1', 345.00, 1, 1, 1, 1, 1.0371, -29.9740, 1.10, 0.90, 1.10, 0.90
10118, 'OAK HARBOR 2 2', 138.00, 1, 1, 1, 1, 1.0361, -33.8389, 1.10, 0.90, 1.10, 0.90
10119, 'OAK HARBOR 2 3', 13.80, 1, 1, 1, 1, 1.0362, -34.1973, 1.10, 0.90, 1.10, 0.90
10120, 'OAK HARBOR 2 4', 1.00, 1, 1, 1, 1, 1.0362, -34.1973, 1.10, 0.90, 1.10, 0.90
10121, 'POULSBO 1 1', 138.00, 1, 1, 1, 1, 1.0178, -38.9742, 1.10, 0.90, 1.10, 0.90
10122, 'POULSBO 1 2', 138.00, 1, 1, 1, 1, 1.0175, -38.9940, 1.10, 0.90, 1.10, 0.90
10123, 'POULSBO 2 1', 138.00, 1, 1, 1, 1, 1.0187, -38.7948, 1.10, 0.90, 1.10, 0.90
10124, 'POULSBO 2 2', 138.00, 1, 1, 1, 1, 1.0189, -38.7730, 1.10, 0.90, 1.10, 0.90
10125, 'POULSBO 2 3', 138.00, 1, 1, 1, 1, 1.0186, -38.8162, 1.10, 0.90, 1.10, 0.90
10126, 'POULSBO 2 4', 138.00, 1, 1, 1, 1, 1.0187, -38.7948, 1.10, 0.90, 1.10, 0.90
10127, 'BREMERTON 5 1', 345.00, 1, 1, 1, 1, 1.0194, -34.7855, 1.10, 0.90, 1.10, 0.90
10128, 'BREMERTON 5 2', 138.00, 1, 1, 1, 1, 1.0349, -38.6783, 1.10, 0.90, 1.10, 0.90
10129, 'VANCOUVER 6 1', 138.00, 1, 1, 1, 1, 1.0347, -35.3483, 1.10, 0.90, 1.10, 0.90
10130, 'VANCOUVER 7 1', 138.00, 1, 1, 1, 1, 1.0212, -35.0845, 1.10, 0.90, 1.10, 0.90
10131, 'VANCOUVER 8 1', 138.00, 1, 1, 1, 1, 1.0288, -35.3584, 1.10, 0.90, 1.10, 0.90
10132, 'VANCOUVER 8 2', 138.00, 1, 1, 1, 1, 1.0285, -35.3828, 1.10, 0.90, 1.10, 0.90
10133, 'GIG HARBOR 2 1', 138.00, 1, 1, 1, 1, 1.0243, -38.3188, 1.10, 0.90, 1.10, 0.90
10134, 'GIG HARBOR 2 2', 138.00, 1, 1, 1, 1, 1.0240, -38.3575, 1.10, 0.90, 1.10, 0.90
10135, 'FERNDALE 1 1', 138.00, 1, 1, 1, 1, 1.0312, -37.9299, 1.10, 0.90, 1.10, 0.90
10136, 'FERNDALE 1 2', 138.00, 1, 1, 1, 1, 1.0315, -37.8940, 1.10, 0.90, 1.10, 0.90
10137, 'LA CENTER 1', 138.00, 1, 1, 1, 1, 1.0259, -34.0686, 1.10, 0.90, 1.10, 0.90
10138, 'GIG HARBOR 3 1', 138.00, 1, 1, 1, 1, 1.0245, -39.4762, 1.10, 0.90, 1.10, 0.90
10139, 'TACOMA 1 1', 138.00, 1, 1, 1, 1, 1.0595, -36.3694, 1.10, 0.90, 1.10, 0.90
10140, 'PORT ORCHARD 3 1', 138.00, 1, 1, 1, 1, 1.0206, -38.9991, 1.10, 0.90, 1.10, 0.90
10141, 'PORT ORCHARD 3 2', 138.00, 1, 1, 1, 1, 1.0203, -39.0226, 1.10, 0.90, 1.10, 0.90
10142, 'PORT ORCHARD 4 1', 138.00, 1, 1, 1, 1, 1.0175, -39.2670, 1.10, 0.90, 1.10, 0.90
10143, 'PORT ORCHARD 4 2', 138.00, 1, 1, 1, 1, 1.0176, -39.2413, 1.10, 0.90, 1.10, 0.90
10144, 'PORT ORCHARD 4 3', 138.00, 1, 1, 1, 1, 1.0175, -39.2670, 1.10, 0.90, 1.10, 0.90
10145, 'VANCOUVER 9 1', 138.00, 1, 1, 1, 1, 1.0192, -34.5093, 1.10, 0.90, 1.10, 0.90
10146, 'VANCOUVER 10 1', 138.00, 1, 1, 1, 1, 1.0198, -35.0158, 1.10, 0.90, 1.10, 0.90
10147, 'VANCOUVER 10 2', 138.00, 1, 1, 1, 1, 1.0200, -34.9933, 1.10, 0.90, 1.10, 0.90
10148, 'VANCOUVER 11 1', 138.00, 1, 1, 1, 1, 1.0261, -35.3927, 1.10, 0.90, 1.10, 0.90
10149, 'OLALLA 1', 138.00, 1, 1, 1, 1, 1.0254, -39.5817, 1.10, 0.90, 1.10, 0.90
10150, 'OLALLA 2', 18.00, 1, 1, 1, 1, 1.0168, -40.4008, 1.10, 0.90, 1.10, 0.90
10151, 'OLALLA 3', 18.00, 1, 1, 1, 1, 1.0218, -40.7279, 1.10, 0.90, 1.10, 0.90
10152, 'OLALLA 4', 1.00, 1, 1, 1, 1, 1.0245, -39.7290, 1.10, 0.90, 1.10, 0.90
10153, 'UNIVERSITY PLACE 1', 138.00, 1, 1, 1, 1, 1.0241, -35.5216, 1.10, 0.90, 1.10, 0.90
10154, 'LAKEWOOD 1 1', 138.00, 1, 1, 1, 1, 1.0580, -36.5102, 1.10, 0.90, 1.10, 0.90
10155, 'LAKEWOOD 2 1', 138.00, 1, 1, 1, 1, 1.0221, -35.4798, 1.10, 0.90, 1.10, 0.90
10156, 'LAKEWOOD 2 2', 138.00, 1, 1, 1, 1, 1.0220, -35.4991, 1.10, 0.90, 1.10, 0.90
10157, 'TACOMA 2 1', 138.00, 1, 1, 1, 1, 1.0366, -38.6917, 1.10, 0.90, 1.10, 0.90
10158, 'TACOMA 2 2', 138.00, 1, 1, 1, 1, 1.0358, -38.6628, 1.10, 0.90, 1.10, 0.90
10159, 'TACOMA 3 1', 138.00, 1, 1, 1, 1, 1.0291, -38.6222, 1.10, 0.90, 1.10, 0.90
10160, 'BAINBRIDGE ISLAND 1', 138.00, 1, 1, 1, 1, 1.0144, -39.1310, 1.10, 0.90, 1.10, 0.90
10161, 'KINGSTON 1', 138.00, 1, 1, 1, 1, 1.0221, -41.4644, 1.10, 0.90, 1.10, 0.90
10162, 'KINGSTON 2', 138.00, 1, 1, 1, 1, 1.0220, -41.4795, 1.10, 0.90, 1.10, 0.90
10163, 'KINGSTON 3', 138.00, 1, 1, 1, 1, 1.0222, -41.4501, 1.10, 0.90, 1.10, 0.90
10164, 'ROY 1 1', 138.00, 1, 1, 1, 1, 1.0238, -35.6183, 1.10, 0.90, 1.10, 0.90
10165, 'TACOMA 4 1', 138.00, 1, 1, 1, 1, 1.0164, -39.7738, 1.10, 0.90, 1.10, 0.90
10166, 'TACOMA 4 2', 138.00, 1, 1, 1, 1, 1.0162, -39.8038, 1.10, 0.90, 1.10, 0.90
10167, 'VANCOUVER 12 1', 138.00, 1, 1, 1, 1, 1.0382, -35.1035, 1.10, 0.90, 1.10, 0.90
10168, 'VANCOUVER 13 1', 138.00, 1, 1, 1, 1, 1.0317, -35.3116, 1.10, 0.90, 1.10, 0.90
10169, 'LAKEWOOD 3 1', 138.00, 1, 1, 1, 1, 1.0259, -35.7331, 1.10, 0.90, 1.10, 0.90
10170, 'LAKEWOOD 3 2', 138.00, 1, 1, 1, 1, 1.0258, -35.7412, 1.10, 0.90, 1.10, 0.90
10171, 'TACOMA 5 1', 138.00, 1, 1, 1, 1, 1.0190, -38.6136, 1.10, 0.90, 1.10, 0.90
10172, 'BATTLE GROUND 1 1', 138.00, 1, 1, 1, 1, 1.0228, -34.0458, 1.10, 0.90, 1.10, 0.90
10173, 'BATTLE GROUND 1 2', 138.00, 1, 1, 1, 1, 1.0230, -34.0214, 1.10, 0.90, 1.10, 0.90
10174, 'BATTLE GROUND 1 3', 138.00, 1, 1, 1, 1, 1.0226, -34.0718, 1.10, 0.90, 1.10, 0.90
10175, 'BATTLE GROUND 2 1', 138.00, 1, 1, 1, 1, 1.0243, -33.4046, 1.10, 0.90, 1.10, 0.90
10176, 'BATTLE GROUND 2 2', 138.00, 1, 1, 1, 1, 1.0246, -33.3800, 1.10, 0.90, 1.10, 0.90
10177, 'VANCOUVER 14 1', 138.00, 1, 1, 1, 1, 1.0388, -34.8738, 1.10, 0.90, 1.10, 0.90
10178, 'VANCOUVER 15 1', 138.00, 1, 1, 1, 1, 1.0233, -35.1877, 1.10, 0.90, 1.10, 0.90
10179, 'BELLINGHAM 1 1', 138.00, 1, 1, 1, 1, 1.0310, -38.0779, 1.10, 0.90, 1.10, 0.90
10180, 'BELLINGHAM 2 1', 138.00, 1, 1, 1, 1, 1.0310, -37.8855, 1.10, 0.90, 1.10, 0.90
10181, 'BELLINGHAM 2 2', 138.00, 1, 1, 1, 1, 1.0312, -37.8551, 1.10, 0.90, 1.10, 0.90
10182, 'BELLINGHAM 2 3', 138.00, 1, 1, 1, 1, 1.0308, -37.9185, 1.10, 0.90, 1.10, 0.90
10183, 'LAKEWOOD 4 1', 138.00, 1, 1, 1, 1, 1.0215, -38.5442, 1.10, 0.90, 1.10, 0.90
10184, 'LAKEWOOD 5 1', 138.00, 1, 1, 1, 1, 1.0392, -38.3506, 1.10, 0.90, 1.10, 0.90
10185, 'LAKEWOOD 5 2', 138.00, 1, 1, 1, 1, 1.0387, -38.3876, 1.10, 0.90, 1.10, 0.90
10186, 'CAMANO ISLAND 1', 138.00, 1, 1, 1, 1, 1.0296, -35.4926, 1.10, 0.90, 1.10, 0.90
10187, 'CAMANO ISLAND 2', 138.00, 1, 1, 1, 1, 1.0294, -35.5134, 1.10, 0.90, 1.10, 0.90
10188, 'YELM 1', 138.00, 1, 1, 1, 1, 1.0307, -33.1624, 1.10, 0.90, 1.10, 0.90
10189, 'YELM 2', 138.00, 1, 1, 1, 1, 1.0311, -33.1320, 1.10, 0.90, 1.10, 0.90
10190, 'VANCOUVER 16 1', 138.00, 1, 1, 1, 1, 1.0200, -34.3061, 1.10, 0.90, 1.10, 0.90
10191, 'VANCOUVER 16 2', 138.00, 1, 1, 1, 1, 1.0197, -34.3443, 1.10, 0.90, 1.10, 0.90
10192, 'VANCOUVER 17 1', 345.00, 1, 1, 1, 1, 1.0098, -32.0089, 1.10, 0.90, 1.10, 0.90
10193, 'VANCOUVER 17 2', 138.00, 1, 1, 1, 1, 1.0189, -34.6722, 1.10, 0.90, 1.10, 0.90
10194, 'VANCOUVER 17 3', 24.00, 1, 1, 1, 1, 1.0189, -34.6713, 1.10, 0.90, 1.10, 0.90
10195, 'VANCOUVER 17 4', 1.00, 1, 1, 1, 1, 1.0189, -34.6713, 1.10, 0.90, 1.10, 0.90
10196, 'TACOMA 6 1', 345.00, 1, 1, 1, 1, 1.0365, -32.1659, 1.10, 0.90, 1.10, 0.90
10197, 'TACOMA 6 2', 138.00, 1, 1, 1, 1, 1.0636, -35.9973, 1.10, 0.90, 1.10, 0.90
10198, 'TACOMA 6 3', 345.00, 1, 1, 1, 1, 1.0361, -32.1928, 1.10, 0.90, 1.10, 0.90
10199, 'VASHON 1', 138.00, 1, 1, 1, 1, 1.0178, -39.7881, 1.10, 0.90, 1.10, 0.90
10200, 'TACOMA 7 1', 138.00, 1, 1, 1, 1, 1.0221, -38.8491, 1.10, 0.90, 1.10, 0.90
...
0 / END OF BUS DATA, BEGIN LOAD DATA
@!   I,'ID',STAT,AREA,ZONE,      PL,        QL,        IP,        IQ,        YP,        YQ, OWNER,SCALE,INTRPT,  DGENP,     DGENQ,DGENF,'  LOAD TYPE '
10001, '1', 1, 1, 1, 9.64, 2.54, 0.00, 0.00, 0.00, 0.00, 1, 1, 0, 0.00, 0.00, 0 , ' '
10002, '1', 1, 1, 1, 15.98, 6.04, 0.00, 0.00, 0.00, 0.00, 1, 1, 0, 0.00, 0.00, 0 , ' '
10003, '1', 1, 1, 1, 14.39, 1.09, 0.00, 0.00, 0.00, 0.00, 1, 1, 0, 0.00, 0.00, 0 , ' '
10004, '1', 1, 1, 1, 0.00, 0.00, 0.00, 0.00, 0.00, 0.00, 1, 1, 0, 0.00, 0.00, 0 , ' '
10005, '1', 1, 1, 1, 10.45, 2.75, 0.00, 0.00, 0.00, 0.00, 1, 1, 0, 0.00, 0.00, 0 , ' '
10006, '1', 1, 1, 1, 13.44, 1.28, 0.00, 0.00, 0.00, 0.00, 1, 1, 0, 0.00, 0.00, 0 , ' '
10007, '1', 1, 1, 1, 0.00, 0.00, 0.00, 0.00, 0.00, 0.00, 1, 1, 0, 0.00, 0.00, 0 , ' '
10008, '1', 1, 1, 1, 0.00, 0.00, 0.00, 0.00, 0.00, 0.00, 1, 1, 0, 0.00, 0.00, 0 , ' '
10009, '1', 1, 1, 1, 16.82, 2.59, 0.00, 0.00, 0.00, 0.00, 1, 1, 0, 0.00, 0.00, 0 , ' '
10010, '1', 1, 1, 1, 33.49, 15.14, 0.00, 0.00, 0.00, 0.00, 1, 1, 0, 0.00, 0.00, 0 , ' '
10011, '1', 1, 1, 1, 32.02, 8.17, 0.00, 0.00, 0.00, 0.00, 1, 1, 0, 0.00, 0.00, 0 , ' '
10012, '1', 1, 1, 1, 0.00, 0.00, 0.00, 0.00, 0.00, 0.00, 1, 1, 0, 0.00, 0.00, 0 , ' '
10013, '1', 1, 1, 1, 57.79, 30.06, 0.00, 0.00, 0.00, 0.00, 1, 1, 0, 0.00, 0.00, 0 , ' '
10014, '1', 1, 1, 1, 0.00, 0.00, 0.00, 0.00, 0.00, 0.00, 1, 1, 0, 0.00, 0.00, 0 , ' '
10015, '1', 1, 1, 1, 25.01, 11.80, 0.00, 0.00, 0.00, 0.00, 1, 1, 0, 0.00, 0.00, 0 , ' '
10016, '1', 1, 1, 1, 0.00, 0.00, 0.00, 0.00, 0.00, 0.00, 1, 1, 0, 0.00, 0.00, 0 , ' '
10017, '1', 1, 1, 1, 25.89, 7.16, 0.00, 0.00, 0.00, 0.00, 1, 1, 0, 0.00, 0.00, 0 , ' '
10018, '1', 1, 1, 1, 24.47, 6.19, 0.00, 0.00, 0.00, 0.00, 1, 1, 0, 0.00, 0.00, 0 , ' '
10019, '1', 1, 1, 1, 0.00, 0.00, 0.00, 0.00, 0.00, 0.00, 1, 1, 0, 0.00, 0.00, 0 , ' '
10020, '1', 1, 1, 1, 53.35, 4.54, 0.00, 0.00, 0.00, 0.00, 1, 1, 0, 0.00, 0.00, 0 , ' '
10021, '1', 1, 1, 1, 8.99, 2.13, 0.00, 0.00, 0.00, 0.00, 1, 1, 0, 0.00, 0.00, 0 , ' '
10022, '1', 1, 1, 1, 48.19, 15.92, 0.00, 0.00, 0.00, 0.00, 1, 1, 0, 0.00, 0.00, 0 , ' '
10023, '1', 1, 1, 1, 0.00, 0.00, 0.00, 0.00, 0.00, 0.00, 1, 1, 0, 0.00, 0.00, 0 , ' '
10024, '1', 1, 1, 1, 43.96, 8.97, 0.00, 0.00, 0.00, 0.00, 1, 1, 0, 0.00, 0.00, 0 , ' '
10025, '1', 1, 1, 1, 30.89, 12.76, 0.00, 0.00, 0.00, 0.00, 1, 1, 0, 0.00, 0.00, 0 , ' '
10026, '1', 1, 1, 1, 18.65, 4.97, 0.00, 0.00, 0.00, 0.00, 1, 1, 0, 0.00, 0.00, 0 , ' '
10027, '1', 1, 1, 1, 0.00, 0.00, 0.00, 0.00, 0.00, 0.00, 1, 1, 0, 0.00, 0.00, 0 , ' '
10028, '1', 1, 1, 1, 32.23, 12.72, 0.00, 0.00, 0.00, 0.00, 1, 1, 0, 0.00, 0.00, 0 , ' '
10029, '1', 1, 1, 1, 32.23, 1.85, 0.00, 0.00, 0.00, 0.00, 1, 1, 0, 0.00, 0.00, 0 , ' '
10030, '1', 1, 1, 1, 0.00, 0.00, 0.00, 0.00, 0.00, 0.00, 1, 1, 0, 0.00, 0.00, 0 , ' '
10031, '1', 1, 1, 1, 39.80, 7.18, 0.00, 0.00, 0.00, 0.00, 1, 1, 0, 0.00, 0.00, 0 , ' '
10032, '1', 1, 1, 1, 41.50, 5.68, 0.00, 0.00, 0.00, 0.00, 1, 1, 0, 0.00, 0.00, 0 , ' '
10033, '1', 1, 1, 1, 59.05, 6.96, 0.00, 0.00, 0.00, 0.00, 1, 1, 0, 0.00, 0.00, 0 , ' '
10034, '1', 1, 1, 1, 0.00, 0.00, 0.00, 0.00, 0.00, 0.00, 1, 1, 0, 0.00, 0.00, 0 , ' '
10035, '1', 1, 1, 1, 59.05, 42.65, 0.00, 0.00, 0.00, 0.00, 1, 1, 0, 0.00, 0.00, 0 , ' '
10036, '1', 1, 1, 1, 0.00, 0.00, 0.00, 0.00, 0.00, 0.00, 1, 1, 0, 0.00, 0.00, 0 , ' '
10037, '1', 1, 1, 1, 58.29, 11.32, 0.00, 0.00, 0.00, 0.00, 1, 1, 0, 0.00, 0.00, 0 , ' '
10038, '1', 1, 1, 1, 36.59, 13.17, 0.00, 0.00, 0.00, 0.00, 1, 1, 0, 0.00, 0.00, 0 , ' '
10039, '1', 1, 1, 1, 0.00, 0.00, 0.00, 0.00, 0.00, 0.00, 1, 1, 0, 0.00, 0.00, 0 , ' '
10040, '1', 1, 1, 1, 43.57, 13.69, 0.00, 0.00, 0.00, 0.00, 1, 1, 0, 0.00, 0.00, 0 , ' '
10041, '1', 1, 1, 1, 20.08, 9.93, 0.00, 0.00, 0.00, 0.00, 1, 1, 0, 0.00, 0.00, 0 , ' '
10042, '1', 1, 1, 1, 59.25, 11.36, 0.00, 0.00, 0.00, 0.00, 1, 1, 0, 0.00, 0.00, 0 , ' '
10043, '1', 1, 1, 1, 0.00, 0.00, 0.00, 0.00, 0.00, 0.00, 1, 1, 0, 0.00, 0.00, 0 , ' '
10044, '1', 1, 1, 1, 37.54, 1.74, 0.00, 0.00, 0.00, 0.00, 1, 1, 0, 0.00, 0.00, 0 , ' '
10045, '1', 1, 1, 1, 25.35, 12.91, 0.00, 0.00, 0.00, 0.00, 1, 1, 0, 0.00, 0.00, 0 , ' '
10046, '1', 1, 1, 1, 0.00, 0.00, 0.00, 0.00, 0.00, 0.00, 1, 1, 0, 0.00, 0.00, 0 , ' '
10047, '1', 1, 1, 1, 45.76, 5.94, 0.00, 0.00, 0.00, 0.00, 1, 1, 0, 0.00, 0.00, 0 , ' '
10048, '1', 1, 1, 1, 45.76, 10.24, 0.00, 0.00, 0.00, 0.00, 1, 1, 0, 0.00, 0.00, 0 , ' '
10049, '1', 1, 1, 1, 0.00, 0.00, 0.00, 0.00, 0.00, 0.00, 1, 1, 0, 0.00, 0.00, 0 , ' '
10050, '1', 1, 1, 1, 0.00, 0.00, 0.00, 0.00, 0.00, 0.00, 1, 1, 0, 0.00, 0.00, 0 , ' '
10051, '1', 1, 1, 1, 0.00, 0.00, 0.00, 0.00, 0.00, 0.00, 1, 1, 0, 0.00, 0.00, 0 , ' '
10052, '1', 1, 1, 1, 17.51, 1.94, 0.00, 0.00, 0.00, 0.00, 1, 1, 0, 0.00, 0.00, 0 , ' '
10053, '1', 1, 1, 1, 43.68, 4.56, 0.00, 0.00, 0.00, 0.00, 1, 1, 0, 0.00, 0.00, 0 , ' '
10054, '1', 1, 1, 1, 43.32, 16.13, 0.00, 0.00, 0.00, 0.00, 1, 1, 0, 0.00, 0.00, 0 , ' '
10055, '1', 1, 1, 1, 17.57, 5.16, 0.00, 0.00, 0.00, 0.00, 1, 1, 0, 0.00, 0.00, 0 , ' '
10056, '1', 1, 1, 1, 0.00, 0.00, 0.00, 0.00, 0.00, 0.00, 1, 1, 0, 0.00, 0.00, 0 , ' '
10057, '1', 1, 1, 1, 0.00, 0.00, 0.00, 0.00, 0.00, 0.00, 1, 1, 0, 0.00, 0.00, 0 , ' '
10058, '1', 1, 1, 1, 43.93, 8.14, 0.00, 0.00, 0.00, 0.00, 1, 1, 0, 0.00, 0.00, 0 , ' '
10059, '1', 1, 1, 1, 0.00, 0.00, 0.00, 0.00, 0.00, 0.00, 1, 1, 0, 0.00, 0.00, 0 , ' '
10060, '1', 1, 1, 1, 43.93, 27.62, 0.00, 0.00, 0.00, 0.00, 1, 1, 0, 0.00, 0.00, 0 , ' '
10061, '1', 1, 1, 1, 51.07, 18.71, 0.00, 0.00, 0.00, 0.00, 1, 1, 0, 0.00, 0.00, 0 , ' '
10062, '1', 1, 1, 1, 0.00, 0.00, 0.00, 0.00, 0.00, 0.00, 1, 1, 0, 0.00, 0.00, 0 , ' '
10063, '1', 1, 1, 1, 0.00, 0.00, 0.00, 0.00, 0.00, 0.00, 1, 1, 0, 0.00, 0.00, 0 , ' '
10064, '1', 1, 1, 1, 36.24, 9.30, 0.00, 0.00, 0.00, 0.00, 1, 1, 0, 0.00, 0.00, 0 , ' '
10065, '1', 1, 1, 1, 46.26, 6.82, 0.00, 0.00, 0.00, 0.00, 1, 1, 0, 0.00, 0.00, 0 , ' '
10066, '1', 1, 1, 1, 0.00, 0.00, 0.00, 0.00, 0.00, 0.00, 1, 1, 0, 0.00, 0.00, 0 , ' '
10067, '1', 1, 1, 1, 0.00, 0.00, 0.00, 0.00, 0.00, 0.00, 1, 1, 0, 0.00, 0.00, 0 , ' '
10068, '1', 1, 1, 1, 0.00, 0.00, 0.00, 0.00, 0.00, 0.00, 1, 1, 0, 0.00, 0.00, 0 , ' '
10069, '1', 1, 1, 1, 58.86, 14.48, 0.00, 0.00, 0.00, 0.00, 1, 1, 0, 0.00, 0.00, 0 , ' '
10070, '1', 1, 1, 1, 11.07, 0.16, 0.00, 0.00, 0.00, 0.00, 1, 1, 0, 0.00, 0.00, 0 , ' '
10071, '1', 1, 1, 1, 38.37, 10.34, 0.00, 0.00, 0.00, 0.00, 1, 1, 0, 0.00, 0.00, 0 , ' '
10072, '1', 1, 1, 1, 0.00, 0.00, 0.00, 0.00, 0.00, 0.00, 1, 1, 0, 0.00, 0.00, 0 , ' '
10073, '1', 1, 1, 1, 38.37, 20.18, 0.00, 0.00, 0.00, 0.00, 1, 1, 0, 0.00, 0.00, 0 , ' '
10074, '1', 1, 1, 1, 0.00, 0.00, 0.00, 0.00, 0.00, 0.00, 1, 1, 0, 0.00, 0.00, 0 , ' '
10075, '1', 1, 1, 1, 14.72, 4.64, 0.00, 0.00, 0.00, 0.00, 1, 1, 0, 0.00, 0.00, 0 , ' '
10076, '1', 1, 1, 1, 27.96, 2.98, 0.00, 0.00, 0.00, 0.00, 1, 1, 0, 0.00, 0.00, 0 , ' '
10077, '1', 1, 1, 1, 28.46, 7.93, 0.00, 0.00, 0.00, 0.00, 1, 1, 0, 0.00, 0.00, 0 , ' '
10078, '1', 1, 1, 1, 0.00, 0.00, 0.00, 0.00, 0.00, 0.00, 1, 1, 0, 0.00, 0.00, 0 , ' '
10079, '1', 1, 1, 1, 55.86, 12.51, 0.00, 0.00, 0.00, 0.00, 1, 1, 0, 0.00, 0.00, 0 , ' '
10080, '1', 1, 1, 1, 0.00, 0.00, 0.00, 0.00, 0.00, 0.00, 1, 1, 0, 0.00, 0.00, 0 , ' '
10081, '1', 1, 1, 1, 0.00, 0.00, 0.00, 0.00, 0.00, 0.00, 1, 1, 0, 0.00, 0.00, 0 , ' '
10082, '1', 1, 1, 1, 0.00, 0.00, 0.00, 0.00, 0.00, 0.00, 1, 1, 0, 0.00, 0.00, 0 , ' '
10083, '1', 1, 1, 1, 22.32, 8.77, 0.00, 0.00, 0.00, 0.00, 1, 1, 0, 0.00, 0.00, 0 , ' '
10084, '1', 1, 1, 1, 0.00, 0.00, 0.00, 0.00, 0.00, 0.00, 1, 1, 0, 0.00, 0.00, 0 , ' '
10085, '1', 1, 1, 1, 40.86, 5.87, 0.00, 0.00, 0.00, 0.00, 1, 1, 0, 0.00, 0.00, 0 , ' '
10086, '1', 1, 1, 1, 0.00, 0.00, 0.00, 0.00, 0.00, 0.00, 1, 1, 0, 0.00, 0.00, 0 , ' '
10087, '1', 1, 1, 1, 10.87, 8.58, 0.00, 0.00, 0.00, 0.00, 1, 1, 0, 0.00, 0.00, 0 , ' '
10088, '1', 1, 1, 1, 0.00, 0.00, 0.00, 0.00, 0.00, 0.00, 1, 1, 0, 0.00, 0.00, 0 , ' '
10089, '1', 1, 1, 1, 33.23, 4.19, 0.00, 0.00, 0.00, 0.00, 1, 1, 0, 0.00, 0.00, 0 , ' '
10090, '1', 1, 1, 1, 33.23, 6.75, 0.00, 0.00, 0.00, 0.00, 1, 1, 0, 0.00, 0.00, 0 , ' '
10091, '1', 1, 1, 1, 37.67, 4.70, 0.00, 0.00, 0.00, 0.00, 1, 1, 0, 0.00, 0.00, 0 , ' '
10092, '1', 1, 1, 1, 31.46, 1.70, 0.00, 0.00, 0.00, 0.00, 1, 1, 0, 0.00, 0.00, 0 , ' '
10093, '1', 1, 1, 1, 31.46, 11.16, 0.00, 0.00, 0.00, 0.00, 1, 1, 0, 0.00, 0.00, 0 , ' '
10094, '1', 1, 1, 1, 0.00, 0.00, 0.00, 0.00, 0.00, 0.00, 1, 1, 0, 0.00, 0.00, 0 , ' '
10095, '1', 1, 1, 1, 0.00, 0.00, 0.00, 0.00, 0.00, 0.00, 1, 1, 0, 0.00, 0.00, 0 , ' '
10096, '1', 1, 1, 1, 18.02, 4.43, 0.00, 0.00, 0.00, 0.00, 1, 1, 0, 0.00, 0.00, 0 , ' '
10097, '1', 1, 1, 1, 31.02, 5.28, 0.00, 0.00, 0.00, 0.00, 1, 1, 0, 0.00, 0.00, 0 , ' '
10098, '1', 1, 1, 1, 19.84, 5.60, 0.00, 0.00, 0.00, 0.00, 1, 1, 0, 0.00, 0.00, 0 , ' '
10099, '1', 1, 1, 1, 0.00, 0.00, 0.00, 0.00, 0.00, 0.00, 1, 1, 0, 0.00, 0.00, 0 , ' '
10100, '1', 1, 1, 1, 0.00, 0.00, 0.00, 0.00, 0.00, 0.00, 1, 1, 0, 0.00, 0.00, 0 , ' '
10101, '1', 1, 1, 1, 0.00, 0.00, 0.00, 0.00, 0.00, 0.00, 1, 1, 0, 0.00, 0.00, 0 , ' '
10102, '1', 1, 1, 1, 33.88, 8.27, 0.00, 0.00, 0.00, 0.00, 1, 1, 0, 0.00, 0.00, 0 , ' '
10103, '1', 1, 1, 1, 0.00, 0.00, 0.00, 0.00, 0.00, 0.00, 1, 1, 0, 0.00, 0.00, 0 , ' '
10104, '1', 1, 1, 1, 57.74, 17.10, 0.00, 0.00, 0.00, 0.00, 1, 1, 0, 0.00, 0.00, 0 , ' '
10105, '1', 1, 1, 1, 0.00, 0.00, 0.00, 0.00, 0.00, 0.00, 1, 1, 0, 0.00, 0.00, 0 , ' '
10106, '1', 1, 1, 1, 51.34, 13.64, 0.00, 0.00, 0.00, 0.00, 1, 1, 0, 0.00, 0.00, 0 , ' '
10107, '1', 1, 1, 1, 26.95, 1.82, 0.00, 0.00, 0.00, 0.00, 1, 1, 0, 0.00, 0.00, 0 , ' '
10108, '1', 1, 1, 1, 0.00, 0.00, 0.00, 0.00, 0.00, 0.00, 1, 1, 0, 0.00, 0.00, 0 , ' '
10109, '1', 1, 1, 1, 0.00, 0.00, 0.00, 0.00, 0.00, 0.00, 1, 1, 0, 0.00, 0.00, 0 , ' '
10110, '1', 1, 1, 1, 12.48, 4.31, 0.00, 0.00, 0.00, 0.00, 1, 1, 0, 0.00, 0.00, 0 , ' '
10111, '1', 1, 1, 1, 0.00, 0.00, 0.00, 0.00, 0.00, 0.00, 1, 1, 0, 0.00, 0.00, 0 , ' '
10112, '1', 1, 1, 1, 11.20, 2.70, 0.00, 0.00, 0.00, 0.00, 1, 1, 0, 0.00, 0.00, 0 , ' '
10113, '1', 1, 1, 1, 0.00, 0.00, 0.00, 0.00, 0.00, 0.00, 1, 1, 0, 0.00, 0.00, 0 , ' '
10114, '1', 1, 1, 1, 31.06, 13.53, 0.00, 0.00, 0.00, 0.00, 1, 1, 0, 0.00, 0.00, 0 , ' '
10115, '1', 1, 1, 1, 31.06, 11.74, 0.00, 0.00, 0.00, 0.00, 1, 1, 0, 0.00, 0.00, 0 , ' '
10116, '1', 1, 1, 1, 47.94, 5.39, 0.00, 0.00, 0.00, 0.00, 1, 1, 0, 0.00, 0.00, 0 , ' '
10117, '1', 1, 1, 1, 0.00, 0.00, 0.00, 0.00, 0.00, 0.00, 1, 1, 0, 0.00, 0.00, 0 , ' '
10118, '1', 1, 1, 1, 45.39, 21.63, 0.00, 0.00, 0.00, 0.00, 1, 1, 0, 0.00, 0.00, 0 , ' '
10119, '1', 1, 1, 1, 0.00, 0.00, 0.00, 0.00, 0.00, 0.00, 1, 1, 0, 0.00, 0.00, 0 , ' '
10120, '1', 1, 1, 1, 0.00, 0.00, 0.00, 0.00, 0.00, 0.00, 1, 1, 0, 0.00, 0.00, 0 , ' '
10121, '1', 1, 1, 1, 0.00, 0.00, 0.00, 0.00, 0.00, 0.00, 1, 1, 0, 0.00, 0.00, 0 , ' '
10122, '1', 1, 1, 1, 35.43, 19.18, 0.00, 0.00, 0.00, 0.00, 1, 1, 0, 0.00, 0.00, 0 , ' '
10123, '1', 1, 1, 1, 0.00, 0.00, 0.00, 0.00, 0.00, 0.00, 1, 1, 0, 0.00, 0.00, 0 , ' '
10124, '1', 1, 1, 1, 0.00, 0.00, 0.00, 0.00, 0.00, 0.00, 1, 1, 0, 0.00, 0.00, 0 , ' '
10125, '1', 1, 1, 1, 35.43, 7.06, 0.00, 0.00, 0.00, 0.00, 1, 1, 0, 0.00, 0.00, 0 , ' '
10126, '1', 1, 1, 1, 0.00, 0.00, 0.00, 0.00, 0.00, 0.00, 1, 1, 0, 0.00, 0.00, 0 , ' '
10127, '1', 1, 1, 1, 0.00, 0.00, 0.00, 0.00, 0.00, 0.00, 1, 1, 0, 0.00, 0.00, 0 , ' '
10128, '1', 1, 1, 1, 44.89, 16.27, 0.00, 0.00, 0.00, 0.00, 1, 1, 0, 0.00, 0.00, 0 , ' '
10129, '1', 1, 1, 1, 50.09, 14.75, 0.00, 0.00, 0.00, 0.00, 1, 1, 0, 0.00, 0.00, 0 , ' '
10130, '1', 1, 1, 1, 50.09, 14.37, 0.00, 0.00, 0.00, 0.00, 1, 1, 0, 0.00, 0.00, 0 , ' '
10131, '1', 1, 1, 1, 0.00, 0.00, 0.00, 0.00, 0.00, 0.00, 1, 1, 0, 0.00, 0.00, 0 , ' '
10132, '1', 1, 1, 1, 41.72, 12.38, 0.00, 0.00, 0.00, 0.00, 1, 1, 0, 0.00, 0.00, 0 , ' '
10133, '1', 1, 1, 1, 0.00, 0.00, 0.00, 0.00, 0.00, 0.00, 1, 1, 0, 0.00, 0.00, 0 , ' '
10134, '1', 1, 1, 1, 71.03, 8.23, 0.00, 0.00, 0.00, 0.00, 1, 1, 0, 0.00, 0.00, 0 , ' '
10135, '1', 1, 1, 1, 61.01, 13.93, 0.00, 0.00, 0.00, 0.00, 1, 1, 0, 0.00, 0.00, 0 , ' '
10136, '1', 1, 1, 1, 0.00, 0.00, 0.00, 0.00, 0.00, 0.00, 1, 1, 0, 0.00, 0.00, 0 , ' '
10137, '1', 1, 1, 1, 20.07, 5.15, 0.00, 0.00, 0.00, 0.00, 1, 1, 0, 0.00, 0.00, 0 , ' '
10138, '1', 1, 1, 1, 38.05, 7.43, 0.00, 0.00, 0.00, 0.00, 1, 1, 0, 0.00, 0.00, 0 , ' '
10139, '1', 1, 1, 1, 35.00, 8.78, 0.00, 0.00, 0.00, 0.00, 1, 1, 0, 0.00, 0.00, 0 , ' '
10140, '1', 1, 1, 1, 16.07, 5.79, 0.00, 0.00, 0.00, 0.00, 1, 1, 0, 0.00, 0.00, 0 , ' '
10141, '1', 1, 1, 1, 41.11, 16.66, 0.00, 0.00, 0.00, 0.00, 1, 1, 0, 0.00, 0.00, 0 , ' '
10142, '1', 1, 1, 1, 41.11, 1.31, 0.00, 0.00, 0.00, 0.00, 1, 1, 0, 0.00, 0.00, 0 , ' '
10143, '1', 1, 1, 1, 0.00, 0.00, 0.00, 0.00, 0.00, 0.00, 1, 1, 0, 0.00, 0.00, 0 , ' '
10144, '1', 1, 1, 1, 0.00, 0.00, 0.00, 0.00, 0.00, 0.00, 1, 1, 0, 0.00, 0.00, 0 , ' '
10145, '1', 1, 1, 1, 37.97, 9.24, 0.00, 0.00, 0.00, 0.00, 1, 1, 0, 0.00, 0.00, 0 , ' '
10146, '1', 1, 1, 1, 37.97, 9.30, 0.00, 0.00, 0.00, 0.00, 1, 1, 0, 0.00, 0.00, 0 , ' '
10147, '1', 1, 1, 1, 0.00, 0.00, 0.00, 0.00, 0.00, 0.00, 1, 1, 0, 0.00, 0.00, 0 , ' '
10148, '1', 1, 1, 1, 52.25, 24.72, 0.00, 0.00, 0.00, 0.00, 1, 1, 0, 0.00, 0.00, 0 , ' '
10149, '1', 1, 1, 1, 0.00, 0.00, 0.00, 0.00, 0.00, 0.00, 1, 1, 0, 0.00, 0.00, 0 , ' '
10150, '1', 1, 1, 1, 7.99, 4.67, 0.00, 0.00, 0.00, 0.00, 1, 1, 0, 0.00, 0.00, 0 , ' '
10151, '1', 1, 1, 1, 11.73, 1.24, 0.00, 0.00, 0.00, 0.00, 1, 1, 0, 0.00, 0.00, 0 , ' '
10152, '1', 1, 1, 1, 0.00, 0.00, 0.00, 0.00, 0.00, 0.00, 1, 1, 0, 0.00, 0.00, 0 , ' '
10153, '1', 1, 1, 1, 35.35, 3.89, 0.00, 0.00, 0.00, 0.00, 1, 1, 0, 0.00, 0.00, 0 , ' '
10154, '1', 1, 1, 1, 33.06, 13.11, 0.00, 0.00, 0.00, 0.00, 1, 1, 0, 0.00, 0.00, 0 , ' '
10155, '1', 1, 1, 1, 0.00, 0.00, 0.00, 0.00, 0.00, 0.00, 1, 1, 0, 0.00, 0.00, 0 , ' '
10156, '1', 1, 1, 1, 33.52, 4.02, 0.00, 0.00, 0.00, 0.00, 1, 1, 0, 0.00, 0.00, 0 , ' '
10157, '1', 1, 1, 1, 32.33, 10.35, 0.00, 0.00, 0.00, 0.00, 1, 1, 0, 0.00, 0.00, 0 , ' '
10158, '1', 1, 1, 1, 0.00, 0.00, 0.00, 0.00, 0.00, 0.00, 1, 1, 0, 0.00, 0.00, 0 , ' '
10159, '1', 1, 1, 1, 15.22, 4.81, 0.00, 0.00, 0.00, 0.00, 1, 1, 0, 0.00, 0.00, 0 , ' '
10160, '1', 1, 1, 1, 55.26, 20.75, 0.00, 0.00, 0.00, 0.00, 1, 1, 0, 0.00, 0.00, 0 , ' '
10161, '1', 1, 1, 1, 0.00, 0.00, 0.00, 0.00, 0.00, 0.00, 1, 1, 0, 0.00, 0.00, 0 , ' '
10162, '1', 1, 1, 1, 25.60, 5.53, 0.00, 0.00, 0.00, 0.00, 1, 1, 0, 0.00, 0.00, 0 , ' '
10163, '1', 1, 1, 1, 0.00, 0.00, 0.00, 0.00, 0.00, 0.00, 1, 1, 0, 0.00, 0.00, 0 , ' '
10164, '1', 1, 1, 1, 26.64, 6.54, 0.00, 0.00, 0.00, 0.00, 1, 1, 0, 0.00, 0.00, 0 , ' '
10165, '1', 1, 1, 1, 0.00, 0.00, 0.00, 0.00, 0.00, 0.00, 1, 1, 0, 0.00, 0.00, 0 , ' '
10166, '1', 1, 1, 1, 47.72, 5.40, 0.00, 0.00, 0.00, 0.00, 1, 1, 0, 0.00, 0.00, 0 , ' '
10167, '1', 1, 1, 1, 32.36, 10.77, 0.00, 0.00, 0.00, 0.00, 1, 1, 0, 0.00, 0.00, 0 , ' '
10168, '1', 1, 1, 1, 32.36, 10.63, 0.00, 0.00, 0.00, 0.00, 1, 1, 0, 0.00, 0.00, 0 , ' '
10169, '1', 1, 1, 1, 0.00, 0.00, 0.00, 0.00, 0.00, 0.00, 1, 1, 0, 0.00, 0.00, 0 , ' '
10170, '1', 1, 1, 1, 14.51, 0.92, 0.00, 0.00, 0.00, 0.00, 1, 1, 0, 0.00, 0.00, 0 , ' '
10171, '1', 1, 1, 1, 51.86, 8.23, 0.00, 0.00, 0.00, 0.00, 1, 1, 0, 0.00, 0.00, 0 , ' '
10172, '1', 1, 1, 1, 0.00, 0.00, 0.00, 0.00, 0.00, 0.00, 1, 1, 0, 0.00, 0.00, 0 , ' '
10173, '1', 1, 1, 1, 0.00, 0.00, 0.00, 0.00, 0.00, 0.00, 1, 1, 0, 0.00, 0.00, 0 , ' '
10174, '1', 1, 1, 1, 41.08, 5.55, 0.00, 0.00, 0.00, 0.00, 1, 1, 0, 0.00, 0.00, 0 , ' '
10175, '1', 1, 1, 1, 41.08, 12.71, 0.00, 0.00, 0.00, 0.00, 1, 1, 0, 0.00, 0.00, 0 , ' '
10176, '1', 1, 1, 1, 0.00, 0.00, 0.00, 0.00, 0.00, 0.00, 1, 1, 0, 0.00, 0.00, 0 , ' '
10177, '1', 1, 1, 1, 37.00, 12.28, 0.00, 0.00, 0.00, 0.00, 1, 1, 0, 0.00, 0.00, 0 , ' '
10178, '1', 1, 1, 1, 37.00, 6.33, 0.00, 0.00, 0.00, 0.00, 1, 1, 0, 0.00, 0.00, 0 , ' '
10179, '1', 1, 1, 1, 55.41, 4.59, 0.00, 0.00, 0.00, 0.00, 1, 1, 0, 0.00, 0.00, 0 , ' '
10180, '1', 1, 1, 1, 1.46, 0.56, 0.00, 0.00, 0.00, 0.00, 1, 1, 0, 0.00, 0.00, 0 , ' '
10181, '1', 1, 1, 1, 0.00, 0.00, 0.00, 0.00, 0.00, 0.00, 1, 1, 0, 0.00, 0.00, 0 , ' '
10182, '1', 1, 1, 1, 55.41, 4.80, 0.00, 0.00, 0.00, 0.00, 1, 1, 0, 0.00, 0.00, 0 , ' '
10183, '1', 1, 1, 1, 48.59, 5.25, 0.00, 0.00, 0.00, 0.00, 1, 1, 0, 0.00, 0.00, 0 , ' '
10184, '1', 1, 1, 1, 0.00, 0.00, 0.00, 0.00, 0.00, 0.00, 1, 1, 0, 0.00, 0.00, 0 , ' '
10185, '1', 1, 1, 1, 68.06, 27.25, 0.00, 0.00, 0.00, 0.00, 1, 1, 0, 0.00, 0.00, 0 , ' '
10186, '1', 1, 1, 1, 0.00, 0.00, 0.00, 0.00, 0.00, 0.00, 1, 1, 0, 0.00, 0.00, 0 , ' '
10187, '1', 1, 1, 1, 37.59, 7.22, 0.00, 0.00, 0.00, 0.00, 1, 1, 0, 0.00, 0.00, 0 , ' '
10188, '1', 1, 1, 1, 51.74, 17.55, 0.00, 0.00, 0.00, 0.00, 1, 1, 0, 0.00, 0.00, 0 , ' '
10189, '1', 1, 1, 1, 0.00, 0.00, 0.00, 0.00, 0.00, 0.00, 1, 1, 0, 0.00, 0.00, 0 , ' '
10190, '1', 1, 1, 1, 0.00, 0.00, 0.00, 0.00, 0.00, 0.00, 1, 1, 0, 0.00, 0.00, 0 , ' '
10191, '1', 1, 1, 1, 63.47, 6.05, 0.00, 0.00, 0.00, 0.00, 1, 1, 0, 0.00, 0.00, 0 , ' '
10192, '1', 1, 1, 1, 0.00, 0.00, 0.00, 0.00, 0.00, 0.00, 1, 1, 0, 0.00, 0.00, 0 , ' '
10193, '1', 1, 1, 1, 63.47, 25.63, 0.00, 0.00, 0.00, 0.00, 1, 1, 0, 0.00, 0.00, 0 , ' '
10194, '1', 1, 1, 1, 0.00, 0.00, 0.00, 0.00, 0.00, 0.00, 1, 1, 0, 0.00, 0.00, 0 , ' '
10195, '1', 1, 1, 1, 0.00, 0.00, 0.00, 0.00, 0.00, 0.00, 1, 1, 0, 0.00, 0.00, 0 , ' '
10196, '1', 1, 1, 1, 0.00, 0.00, 0.00, 0.00, 0.00, 0.00, 1, 1, 0, 0.00, 0.00, 0 , ' '
10197, '1', 1, 1, 1, 0.00, 0.00, 0.00, 0.00, 0.00, 0.00, 1, 1, 0, 0.00, 0.00, 0 , ' '
10198, '1', 1, 1, 1, 55.17, 29.09, 0.00, 0.00, 0.00, 0.00, 1, 1, 0, 0.00, 0.00, 0 , ' '
10199, '1', 1, 1, 1, 25.51, 11.27, 0.00, 0.00, 0.00, 0.00, 1, 1, 0, 0.00, 0.00, 0 , ' '
10200, '1', 1, 1, 1, 57.98, 19.56, 0.00, 0.00, 0.00, 0.00, 1, 1, 0, 0.00, 0.00, 0 , ' '
...
0 / END OF LOAD DATA, BEGIN FIXED SHUNT DATA
@!   I,'ID',STATUS,  GL,        BL
10001, '1', 1, 0.00, 0.00
10002, '1', 1, 0.00, 0.00
10003, '1', 1, 0.00, 0.00
10004, '1', 1, 0.00, 0.00
10005, '1', 1, 0.00, 0.00
10006, '1', 1, 0.00, 0.00
10007, '1', 1, 0.00, 0.00
10008, '1', 1, 0.00, 0.00
10009, '1', 1, 0.00, 0.00
10010, '1', 1, 0.00, 0.00
10011, '1', 1, 0.00, 0.00
10012, '1', 1, 0.00, 0.00
10013, '1', 1, 0.00, 0.00
10014, '1', 1, 0.00, 0.00
10015, '1', 1, 0.00, 0.00
10016, '1', 1, 0.00, 0.00
10017, '1', 1, 0.00, 0.00
10018, '1', 1, 0.00, 0.00
10019, '1', 1, 0.00, 0.00
10020, '1', 1, 0.00, 32.00
10021, '1', 1, 0.00, 0.00
10022, '1', 1, 0.00, 0.00
10023, '1', 1, 0.00, 0.00
10024, '1', 1, 0.00, 0.00
10025, '1', 1, 0.00, 0.00
10026, '1', 1, 0.00, 0.00
10027, '1', 1, 0.00, 0.00
10028, '1', 1, 0.00, 0.00
10029, '1', 1, 0.00, 0.00
10030, '1', 1, 0.00, 0.00
10031, '1', 1, 0.00, 0.00
10032, '1', 1, 0.00, 0.00
10033, '1', 1, 0.00, 0.00
10034, '1', 1, 0.00, 0.00
10035, '1', 1, 0.00, 0.00
10036, '1', 1, 0.00, 0.00
10037, '1', 1, 0.00, 0.00
10038, '1', 1, 0.00, 0.00
10039, '1', 1, 0.00, 0.00
10040, '1', 1, 0.00, 0.00
10041, '1', 1, 0.00, 0.00
10042, '1', 1, 0.00, 0.00
10043, '1', 1, 0.00, 0.00
10044, '1', 1, 0.00, 0.00
10045, '1', 1, 0.00, 0.00
10046, '1', 1, 0.00, 0.00
10047, '1', 1, 0.00, 0.00
10048, '1', 1, 0.00, 0.00
10049, '1', 1, 0.00, 0.00
10050, '1', 1, 0.00, 0.00
10051, '1', 1, 0.00, 0.00
10052, '1', 1, 0.00, 0.00
10053, '1', 1, 0.00, 0.00
10054, '1', 1, 0.00, 0.00
10055, '1', 1, 0.00, 0.00
10056, '1', 1, 0.00, 0.00
10057, '1', 1, 0.00, 0.00
10058, '1', 1, 0.00, 0.00
10059, '1', 1, 0.00, 0.00
10060, '1', 1, 0.00, 0.00
10061, '1', 1, 0.00, 22.00
10062, '1', 1, 0.00, 0.00
10063, '1', 1, 0.00, 0.00
10064, '1', 1, 0.00, 0.00
10065, '1', 1, 0.00, 0.00
10066, '1', 1, 0.00, 0.00
10067, '1', 1, 0.00, 0.00
10068, '1', 1, 0.00, 0.00
10069, '1', 1, 0.00, 0.00
10070, '1', 1, 0.00, 0.00
10071, '1', 1, 0.00, 0.00
10072, '1', 1, 0.00, 0.00
10073, '1', 1, 0.00, 0.00
10074, '1', 1, 0.00, 0.00
10075, '1', 1, 0.00, 0.00
10076, '1', 1, 0.00, 0.00
10077, '1', 1, 0.00, 0.00
10078, '1', 1, 0.00, 0.00
10079, '1', 1, 0.00, 0.00
10080, '1', 1, 0.00, 0.00
10081, '1', 1, 0.00, 0.00
10082, '1', 1, 0.00, 0.00
10083, '1', 1, 0.00, 0.00
10084, '1', 1, 0.00, 0.00
10085, '1', 1, 0.00, 0.00
10086, '1', 1, 0.00, 0.00
10087, '1', 1, 0.00, 0.00
10088, '1', 1, 0.00, 0.00
10089, '1', 1, 0.00, 0.00
10090, '1', 1, 0.00, 0.00
10091, '1', 1, 0.00, 0.00
10092, '1', 1, 0.00, 0.00
10093, '1', 1, 0.00, 0.00
10094, '1', 1, 0.00, 0.00
10095, '1', 1, 0.00, 0.00
10096, '1', 1, 0.00, 0.00
10097, '1', 1, 0.00, 0.00
10098, '1', 1, 0.00, 0.00
10099, '1', 1, 0.00, 0.00
10100, '1', 1, 0.00, 0.00
10101, '1', 1, 0.00, 0.00
10102, '1', 1, 0.00, 0.00
10103, '1', 1, 0.00, 0.00
10104, '1', 1, 0.00, 0.00
10105, '1', 1, 0.00, 0.00
10106, '1', 1, 0.00, 0.00
10107, '1', 1, 0.00, 0.00
10108, '1', 1, 0.00, 0.00
10109, '1', 1, 0.00, 0.00
10110, '1', 1, 0.00, 0.00
10111, '1', 1, 0.00, 0.00
10112, '1', 1, 0.00, 0.00
10113, '1', 1, 0.00, 0.00
10114, '1', 1, 0.00, 0.00
10115, '1', 1, 0.00, 0.00
10116, '1', 1, 0.00, 0.00
10117, '1', 1, 0.00, 0.00
10118, '1', 1, 0.00, 0.00
10119, '1', 1, 0.00, 0.00
10120, '1', 1, 0.00, 0.00
10121, '1', 1, 0.00, 0.00
10122, '1', 1, 0.00, 0.00
10123, '1', 1, 0.00, 0.00
10124, '1', 1, 0.00, 0.00
10125, '1', 1, 0.00, 0.00
10126, '1', 1, 0.00, 0.00
10127, '1', 1, 0.00, 0.00
10128, '1', 1, 0.00, 0.00
10129, '1', 1, 0.00, 0.00
10130, '1', 1, 0.00, 0.00
10131, '1', 1, 0.00, 0.00
10132, '1', 1, 0.00, 0.00
10133, '1', 1, 0.00, 0.00
10134, '1', 1, 0.00, 0.00
10135, '1', 1, 0.00, 0.00
10136, '1', 1, 0.00, 0.00
10137, '1', 1, 0.00, 0.00
10138, '1', 1, 0.00, 0.00
10139, '1', 1, 0.00, 0.00
10140, '1', 1, 0.00, 0.00
10141, '1', 1, 0.00, 0.00
10142, '1', 1, 0.00, 0.00
10143, '1', 1, 0.00, 0.00
10144, '1', 1, 0.00, 0.00
10145, '1', 1, 0.00, 0.00
10146, '1', 1, 0.00, 0.00
10147, '1', 1, 0.00, 0.00
10148, '1', 1, 0.00, 0.00
10149, '1', 1, 0.00, 0.00
10150, '1', 1, 0.00, 0.00
10151, '1', 1, 0.00, 0.00
10152, '1', 1, 0.00, 0.00
10153, '1', 1, 0.00, 0.00
10154, '1', 1, 0.00, 0.00
10155, '1', 1, 0.00, 0.00
10156, '1', 1, 0.00, 0.00
10157, '1', 1, 0.00, 80.00
10158, '1', 1, 0.00, 0.00
10159, '1', 1, 0.00, 0.00
10160, '1', 1, 0.00, 0.00
10161, '1', 1, 0.00, 0.00
10162, '1', 1, 0.00, 0.00
10163, '1', 1, 0.00, 0.00
10164, '1', 1, 0.00, 0.00
10165, '1', 1, 0.00, 0.00
10166, '1', 1, 0.00, 0.00
10167, '1', 1, 0.00, 0.00
10168, '1', 1, 0.00, 0.00
10169, '1', 1, 0.00, 0.00
10170, '1', 1, 0.00, 0.00
10171, '1', 1, 0.00, 0.00
10172, '1', 1, 0.00, 0.00
10173, '1', 1, 0.00, 0.00
10174, '1', 1, 0.00, 0.00
10175, '1', 1, 0.00, 0.00
10176, '1', 1, 0.00, 0.00
10177, '1', 1, 0.00, 0.00
10178, '1', 1, 0.00, 0.00
10179, '1', 1, 0.00, 0.00
10180, '1', 1, 0.00, 0.00
10181, '1', 1, 0.00, 0.00
10182, '1', 1, 0.00, 0.00
10183, '1', 1, 0.00, 0.00
10184, '1', 1, 0.00, 0.00
10185, '1', 1, 0.00, 0.00
10186, '1', 1, 0.00, 0.00
10187, '1', 1, 0.00, 0.00
10188, '1', 1, 0.00, 0.00
10189, '1', 1, 0.00, 0.00
10190, '1', 1, 0.00, 0.00
10191, '1', 1, 0.00, 0.00
10192, '1', 1, 0.00, 0.00
10193, '1', 1, 0.00, 0.00
10194, '1', 1, 0.00, 0.00
10195, '1', 1, 0.00, 0.00
10196, '1', 1, 0.00, 0.00
10197, '1', 1, 0.00, 0.00
10198, '1', 1, 0.00, 0.00
10199, '1', 1, 0.00, 0.00
10200, '1', 1, 0.00, 0.00
...
0 / END OF FIXED SHUNT DATA, BEGIN GENERATOR DATA
10683, '1', 0.00, 0.00, 61.16, -7.80, 1.05, 10680, 0, 207.74, 0.00, 0.00, 0.00, 0.00, 1.00, 0, 159.27, 159.27, 52.01, 0, 1, 1.00, 0, 1.00, 0, 1.00, 0, 1.00, 0, 1.00
10684, '1', 85.29, 58.95, 61.16, -7.80, 1.02, 10680, 0, 201.13, 0.00, 0.00, 0.00, 0.00, 1.00, 1, 159.27, 85.29, 85.29, 0, 1, 1.00, 0, 1.00, 0, 1.00, 0, 1.00, 0, 1.00
10685, '1', 138.65, 58.95, 61.16, -7.80, 1.02, 10680, 0, 217.36, 0.00, 0.00, 0.00, 0.00, 1.00, 1, 159.27, 138.65, 138.65, 0, 1, 1.00, 0, 1.00, 0, 1.00, 0, 1.00, 0, 1.00
10686, '1', 0.00, 0.00, 61.16, -7.80, 1.05, 10680, 0, 214.15, 0.00, 0.00, 0.00, 0.00, 1.00, 0, 159.27, 159.27, 56.04, 0, 1, 1.00, 0, 1.00, 0, 1.00, 0, 1.00, 0, 1.00
10687, '1', 120.63, 58.95, 61.16, -7.80, 1.02, 10680, 0, 188.08, 0.00, 0.00, 0.00, 0.00, 1.00, 1, 159.27, 120.63, 120.63, 0, 1, 1.00, 0, 1.00, 0, 1.00, 0, 1.00, 0, 1.00
10688, '1', 109.93, 58.95, 61.16, -7.80, 1.02, 10680, 0, 201.28, 0.00, 0.00, 0.00, 0.00, 1.00, 1, 159.27, 109.93, 109.93, 0, 1, 1.00, 0, 1.00, 0, 1.00, 0, 1.00, 0, 1.00
10689, '1', 9.02, 4.95, 4.95, -0.63, 1.00, 10681, 0, 12.90, 0.00, 0.00, 0.00, 0.00, 1.00, 1, 12.90, 9.02, 9.02, 0, 1, 1.00, 0, 1.00, 0, 1.00, 0, 1.00, 0, 1.00
10691, '1', 59.72, 21.07, 21.07, -14.24, 1.01, 10690, 0, 98.92, 0.00, 0.00, 0.00, 0.00, 1.00, 1, 98.90, 59.72, 59.72, 0, 1, 1.00, 0, 1.00, 0, 1.00, 0, 1.00, 1, 1.00
10694, '1', 23.02, 4.19, 13.44, -1.71, 1.05, 10693, 0, 35.08, 0.00, 0.00, 0.00, 0.00, 1.00, 1, 35.00, 23.02, 23.02, 0, 1, 1.00, 0, 1.00, 0, 1.00, 0, 1.00, 0, 1.00
10695, '1', 25.55, 4.19, 13.44, -1.71, 1.05, 10693, 0, 41.36, 0.00, 0.00, 0.00, 0.00, 1.00, 1, 35.00, 25.55, 25.55, 0, 1, 1.00, 0, 1.00, 0, 1.00, 0, 1.00, 0, 1.00
10699, '1', 79.42, -14.50, 21.45, -14.50, 1.00, 10697, 0, 120.64, 0.00, 0.00, 0.00, 0.00, 1.00, 1, 100.70, 79.42, 79.42, 0, 1, 1.00, 0, 1.00, 0, 1.00, 0, 1.00, 1, 1.00
10703, '1', 136.30, 25.92, 29.03, -19.63, 1.06, 10702, 0, 174.64, 0.00, 0.00, 0.00, 0.00, 1.00, 1, 136.30, 136.30, 136.30, 0, 1, 1.00, 0, 1.00, 0, 1.00, 0, 1.00, 1, 1.00
10710, '1', 171.16, -10.61, 83.17, -10.61, 1.01, 10707, 0, 238.48, 0.00, 0.00, 0.00, 0.00, 1.00, 1, 216.60, 171.16, 171.16, 0, 1, 1.00, 0, 1.00, 0, 1.00, 0, 1.00, 0, 1.00
10711, '1', 189.67, -10.61, 83.17, -10.61, 1.01, 10707, 0, 219.83, 0.00, 0.00, 0.00, 0.00, 1.00, 1, 216.60, 189.67, 189.67, 0, 1, 1.00, 0, 1.00, 0, 1.00, 0, 1.00, 0, 1.00
10712, '1', 135.95, -10.61, 83.17, -10.61, 1.01, 10707, 0, 219.92, 0.00, 0.00, 0.00, 0.00, 1.00, 1, 216.60, 135.95, 135.95, 0, 1, 1.00, 0, 1.00, 0, 1.00, 0, 1.00, 0, 1.00
10713, '1', 189.37, -10.61, 83.17, -10.61, 1.01, 10707, 0, 259.93, 0.00, 0.00, 0.00, 0.00, 1.00, 1, 216.60, 189.37, 189.37, 0, 1, 1.00, 0, 1.00, 0, 1.00, 0, 1.00, 0, 1.00
10714, '1', 0.00, 0.00, 83.17, -10.61, 1.03, 10707, 0, 235.85, 0.00, 0.00, 0.00, 0.00, 1.00, 0, 216.60, 216.60, 42.73, 0, 1, 1.00, 0, 1.00, 0, 1.00, 0, 1.00, 0, 1.00
10715, '1', 172.43, -10.61, 83.17, -10.61, 1.02, 10707, 0, 279.75, 0.00, 0.00, 0.00, 0.00, 1.00, 1, 216.60, 172.43, 172.43, 0, 1, 1.00, 0, 1.00, 0, 1.00, 0, 1.00, 0, 1.00
10722, '1', 0.00, 0.00, 40.28, -5.14, 1.03, 10717, 0, 131.40, 0.00, 0.00, 0.00, 0.00, 1.00, 0, 104.90, 104.90, 32.78, 0, 1, 1.00, 0, 1.00, 0, 1.00, 0, 1.00, 0, 1.00
10723, '1', 82.25, 40.28, 40.28, -5.14, 1.00, 10717, 0, 152.84, 0.00, 0.00, 0.00, 0.00, 1.00, 1, 104.90, 82.25, 82.25, 0, 1, 1.00, 0, 1.00, 0, 1.00, 0, 1.00, 0, 1.00
10724, '1', 104.90, 40.28, 40.28, -5.14, 1.00, 10717, 0, 115.76, 0.00, 0.00, 0.00, 0.00, 1.00, 1, 104.90, 104.90, 104.90, 0, 1, 1.00, 0, 1.00, 0, 1.00, 0, 1.00, 0, 1.00
10725, '1', 71.29, 40.28, 40.28, -5.14, 1.00, 10717, 0, 116.27, 0.00, 0.00, 0.00, 0.00, 1.00, 1, 104.90, 71.29, 71.29, 0, 1, 1.00, 0, 1.00, 0, 1.00, 0, 1.00, 0, 1.00
10726, '1', 71.08, 40.28, 40.28, -5.14, 1.00, 10717, 0, 106.56, 0.00, 0.00, 0.00, 0.00, 1.00, 1, 104.90, 71.08, 71.08, 0, 1, 1.00, 0, 1.00, 0, 1.00, 0, 1.00, 0, 1.00
10727, '1', 0.00, 0.00, 40.28, -5.14, 1.03, 10717, 0, 122.59, 0.00, 0.00, 0.00, 0.00, 1.00, 0, 104.90, 104.90, 28.25, 0, 1, 1.00, 0, 1.00, 0, 1.00, 0, 1.00, 0, 1.00
10728, '1', 23.81, -1.37, 10.73, -1.37, 1.02, 0, 0, 32.27, 0.00, 0.00, 0.00, 0.00, 1.00, 1, 27.95, 23.81, 23.81, 0, 1, 1.00, 0, 1.00, 0, 1.00, 0, 1.00, 0, 1.00
10728, '1', 0.00, 0.00, 10.73, -1.37, 1.02, 0, 0, 35.80, 0.00, 0.00, 0.00, 0.00, 1.00, 0, 27.95, 27.95, 6.98, 0, 1, 1.00, 0, 1.00, 0, 1.00, 0, 1.00, 0, 1.00
10729, '1', 0.00, 0.00, 10.73, -1.37, 1.01, 0, 0, 27.95, 0.00, 0.00, 0.00, 0.00, 1.00, 0, 27.95, 27.95, 6.03, 0, 1, 1.00, 0, 1.00, 0, 1.00, 0, 1.00, 0, 1.00
10729, '1', 20.46, -1.37, 10.73, -1.37, 1.01, 0, 0, 32.33, 0.00, 0.00, 0.00, 0.00, 1.00, 1, 27.95, 20.46, 20.46, 0, 1, 1.00, 0, 1.00, 0, 1.00, 0, 1.00, 0, 1.00
10731, '1', 0.00, 0.00, 6.50, -0.83, 1.02, 0, 0, 18.62, 0.00, 0.00, 0.00, 0.00, 1.00, 0, 16.92, 16.92, 5.64, 0, 1, 1.00, 0, 1.00, 0, 1.00, 0, 1.00, 0, 1.00
10731, '1', 0.00, 0.00, 6.50, -0.83, 1.02, 0, 0, 21.25, 0.00, 0.00, 0.00, 0.00, 1.00, 0, 16.92, 16.92, 6.86, 0, 1, 1.00, 0, 1.00, 0, 1.00, 0, 1.00, 0, 1.00
10731, '1', 0.00, 0.00, 6.50, -0.83, 1.02, 0, 0, 16.92, 0.00, 0.00, 0.00, 0.00, 1.00, 0, 16.92, 16.92, 3.04, 0, 1, 1.00, 0, 1.00, 0, 1.00, 0, 1.00, 0, 1.00
10731, '1', 9.83, -0.83, 6.50, -0.83, 1.02, 0, 0, 19.89, 0.00, 0.00, 0.00, 0.00, 1.00, 1, 16.92, 9.83, 9.83, 0, 1, 1.00, 0, 1.00, 0, 1.00, 0, 1.00, 0, 1.00
10731, '1', 0.00, 0.00, 6.50, -0.83, 1.02, 0, 0, 20.51, 0.00, 0.00, 0.00, 0.00, 1.00, 0, 16.92, 16.92, 4.16, 0, 1, 1.00, 0, 1.00, 0, 1.00, 0, 1.00, 0, 1.00
10737, '1', 158.50, 81.01, 81.01, -17.67, 1.03, 10734, 0, 193.29, 0.00, 0.00, 0.00, 0.00, 1.00, 1, 159.15, 159.15, 72.55, 0, 1, 1.00, 0, 1.00, 0, 1.00, 0, 1.00, 0, 1.00
10738, '1', 158.50, 81.01, 81.01, -17.67, 1.03, 10734, 0, 195.43, 0.00, 0.00, 0.00, 0.00, 1.00, 1, 159.15, 159.15, 58.54, 0, 1, 1.00, 0, 1.00, 0, 1.00, 0, 1.00, 0, 1.00
10742, '1', 80.00, -3.92, 30.72, -3.92, 1.03, 10739, 0, 96.14, 0.00, 0.00, 0.00, 0.00, 1.00, 1, 80.00, 80.00, 80.00, 0, 1, 1.00, 0, 1.00, 0, 1.00, 0, 1.00, 0, 1.00
10743, '1', 0.00, 0.00, 30.72, -3.92, 1.03, 10739, 0, 93.18, 0.00, 0.00, 0.00, 0.00, 1.00, 0, 80.00, 80.00, 31.97, 0, 1, 1.00, 0, 1.00, 0, 1.00, 0, 1.00, 0, 1.00
10744, '1', 64.23, -3.92, 30.72, -3.92, 1.03, 10739, 0, 106.35, 0.00, 0.00, 0.00, 0.00, 1.00, 1, 80.00, 64.23, 64.23, 0, 1, 1.00, 0, 1.00, 0, 1.00, 0, 1.00, 0, 1.00
10746, '1', 66.35, -12.96, 19.17, -12.96, 1.02, 10745, 0, 98.26, 0.00, 0.00, 0.00, 0.00, 1.00, 1, 90.00, 66.35, 66.35, 0, 1, 1.00, 0, 1.00, 0, 1.00, 0, 1.00, 1, 1.00
10750, '1', 409.37, -20.06, 157.20, -20.06, 1.04, 10747, 0, 498.65, 0.00, 0.00, 0.00, 0.00, 1.00, 1, 409.37, 409.37, 409.37, 0, 1, 1.00, 0, 1.00, 0, 1.00, 0, 1.00, 0, 1.00
10751, '1', 0.00, 0.00, 157.20, -20.06, 1.04, 10747, 0, 454.46, 0.00, 0.00, 0.00, 0.00, 1.00, 0, 409.37, 409.37, 47.40, 0, 1, 1.00, 0, 1.00, 0, 1.00, 0, 1.00, 0, 1.00
10752, '1', 293.05, -20.06, 157.20, -20.06, 1.04, 10747, 0, 417.45, 0.00, 0.00, 0.00, 0.00, 1.00, 1, 409.37, 293.05, 293.05, 0, 1, 1.00, 0, 1.00, 0, 1.00, 0, 1.00, 0, 1.00
10753, '1', 0.00, 0.00, 157.20, -20.06, 1.04, 10747, 0, 459.34, 0.00, 0.00, 0.00, 0.00, 1.00, 0, 409.37, 409.37, 49.62, 0, 1, 1.00, 0, 1.00, 0, 1.00, 0, 1.00, 0, 1.00
10754, '1', 323.10, -20.06, 157.20, -20.06, 1.04, 10747, 0, 487.04, 0.00, 0.00, 0.00, 0.00, 1.00, 1, 409.37, 323.10, 323.10, 0, 1, 1.00, 0, 1.00, 0, 1.00, 0, 1.00, 0, 1.00
10755, '1', 333.93, -20.06, 157.20, -20.06, 1.04, 10747, 0, 548.59, 0.00, 0.00, 0.00, 0.00, 1.00, 1, 409.37, 333.93, 333.93, 0, 1, 1.00, 0, 1.00, 0, 1.00, 0, 1.00, 0, 1.00
10757, '1', 40.50, -1.98, 15.55, -1.98, 1.02, 0, 0, 45.68, 0.00, 0.00, 0.00, 0.00, 1.00, 1, 40.50, 40.50, 40.50, 0, 1, 1.00, 0, 1.00, 0, 1.00, 0, 1.00, 0, 1.00
10757, '1', 40.50, -1.98, 15.55, -1.98, 1.02, 0, 0, 47.33, 0.00, 0.00, 0.00, 0.00, 1.00, 1, 40.50, 40.50, 40.50, 0, 1, 1.00, 0, 1.00, 0, 1.00, 0, 1.00, 0, 1.00
10757, '1', 28.94, -1.98, 15.55, -1.98, 1.02, 0, 0, 57.72, 0.00, 0.00, 0.00, 0.00, 1.00, 1, 40.50, 28.94, 28.94, 0, 1, 1.00, 0, 1.00, 0, 1.00, 0, 1.00, 0, 1.00
10757, '1', 0.00, 0.00, 15.55, -1.98, 1.02, 0, 0, 56.80, 0.00, 0.00, 0.00, 0.00, 1.00, 0, 40.50, 40.50, 9.58, 0, 1, 1.00, 0, 1.00, 0, 1.00, 0, 1.00, 0, 1.00
10758, '1', 0.00, 0.00, 21.35, -2.72, 1.04, 0, 0, 64.74, 0.00, 0.00, 0.00, 0.00, 1.00, 0, 55.60, 55.60, 19.42, 0, 1, 1.00, 0, 1.00, 0, 1.00, 0, 1.00, 0, 1.00
10758, '1', 55.60, 21.35, 21.35, -2.72, 1.04, 0, 0, 63.99, 0.00, 0.00, 0.00, 0.00, 1.00, 1, 55.60, 55.60, 55.60, 0, 1, 1.00, 0, 1.00, 0, 1.00, 0, 1.00, 0, 1.00
10760, '1', 0.00, 0.00, 0.00, 0.00, 1.04, 0, 0, 69.12, 0.00, 0.00, 0.00, 0.00, 1.00, 0, 61.50, 61.50, 13.06, 0, 1, 1.00, 0, 1.00, 0, 1.00, 0, 1.00, 1, 1.00
10768, '1', 212.51, 56.83, 56.83, -38.42, 1.03, 10766, 0, 301.55, 0.00, 0.00, 0.00, 0.00, 1.00, 1, 266.80, 212.51, 212.51, 0, 1, 1.00, 0, 1.00, 0, 1.00, 0, 1.00, 1, 1.00
10771, '1', 51.82, 19.90, 19.90, -2.54, 1.04, 10769, 0, 72.35, 0.00, 0.00, 0.00, 0.00, 1.00, 1, 51.83, 51.82, 51.82, 0, 1, 1.00, 0, 1.00, 0, 1.00, 0, 1.00, 0, 1.00
10772, '1', 41.62, 19.90, 19.90, -2.54, 1.04, 10769, 0, 52.68, 0.00, 0.00, 0.00, 0.00, 1.00, 1, 51.83, 41.62, 41.62, 0, 1, 1.00, 0, 1.00, 0, 1.00, 0, 1.00, 0, 1.00
10773, '1', 0.00, 0.00, 19.90, -2.54, 1.03, 10769, 0, 66.71, 0.00, 0.00, 0.00, 0.00, 1.00, 0, 51.83, 51.82, 20.88, 0, 1, 1.00, 0, 1.00, 0, 1.00, 0, 1.00, 0, 1.00
10774, '1', 41.38, 19.90, 19.90, -2.54, 1.04, 10769, 0, 57.61, 0.00, 0.00, 0.00, 0.00, 1.00, 1, 51.83, 41.38, 41.38, 0, 1, 1.00, 0, 1.00, 0, 1.00, 0, 1.00, 0, 1.00
10776, '1', 0.00, 0.00, 0.00, 0.00, 1.03, 10775, 0, 32.07, 0.00, 0.00, 0.00, 0.00, 1.00, 0, 28.00, 28.00, 3.77, 0, 1, 1.00, 0, 1.00, 0, 1.00, 0, 1.00, 1, 1.00
10776, '1', 14.32, 0.00, 0.00, 0.00, 1.03, 10775, 0, 23.98, 0.00, 0.00, 0.00, 0.00, 1.00, 1, 20.00, 14.32, 14.32, 0, 1, 1.00, 0, 1.00, 0, 1.00, 0, 1.00, 1, 1.00
10778, '1', 8.03, -0.49, 3.84, -0.49, 1.02, 0, 0, 11.56, 0.00, 0.00, 0.00, 0.00, 1.00, 1, 10.00, 8.03, 8.03, 0, 1, 1.00, 0, 1.00, 0, 1.00, 0, 1.00, 0, 1.00
10778, '1', 14.80, -0.73, 5.68, -0.73, 1.02, 0, 0, 14.94, 0.00, 0.00, 0.00, 0.00, 1.00, 1, 14.80, 14.80, 14.80, 0, 1, 1.00, 0, 1.00, 0, 1.00, 0, 1.00, 0, 1.00
10782, '1', 13.43, 0.00, 0.00, 0.00, 1.02, 10781, 0, 27.32, 0.00, 0.00, 0.00, 0.00, 1.00, 1, 18.33, 13.43, 13.43, 0, 1, 1.00, 0, 1.00, 0, 1.00, 0, 1.00, 1, 1.00
10782, '1', 14.65, 0.00, 0.00, 0.00, 1.02, 10781, 0, 18.63, 0.00, 0.00, 0.00, 0.00, 1.00, 1, 18.33, 14.65, 14.65, 0, 1, 1.00, 0, 1.00, 0, 1.00, 0, 1.00, 1, 1.00
10783, '1', 13.24, 0.00, 0.00, 0.00, 1.02, 10781, 0, 22.11, 0.00, 0.00, 0.00, 0.00, 1.00, 1, 18.33, 13.24, 13.24, 0, 1, 1.00, 0, 1.00, 0, 1.00, 0, 1.00, 1, 1.00
10784, '1', 17.21, 0.00, 0.00, 0.00, 1.02, 0, 0, 43.83, 0.00, 0.00, 0.00, 0.00, 1.00, 1, 39.40, 17.21, 17.21, 0, 1, 1.00, 0, 1.00, 0, 1.00, 0, 1.00, 1, 1.00
10784, '1', 42.83, 0.00, 0.00, 0.00, 1.02, 0, 0, 64.64, 0.00, 0.00, 0.00, 0.00, 1.00, 1, 58.20, 42.83, 42.83, 0, 1, 1.00, 0, 1.00, 0, 1.00, 0, 1.00, 1, 1.00
10785, '1', 39.40, 0.00, 0.00, 0.00, 1.02, 0, 0, 44.46, 0.00, 0.00, 0.00, 0.00, 1.00, 1, 39.40, 39.40, 39.40, 0, 1, 1.00, 0, 1.00, 0, 1.00, 0, 1.00, 1, 1.00
10785, '1', 31.08, 0.00, 0.00, 0.00, 1.02, 0, 0, 49.64, 0.00, 0.00, 0.00, 0.00, 1.00, 1, 39.40, 31.08, 31.08, 0, 1, 1.00, 0, 1.00, 0, 1.00, 0, 1.00, 1, 1.00
10791, '1', 58.20, 22.43, 22.43, -15.16, 1.00, 10789, 0, 136.19, 0.00, 0.00, 0.00, 0.00, 1.00, 1, 105.30, 58.20, 58.20, 0, 1, 1.00, 0, 1.00, 0, 1.00, 0, 1.00, 1, 1.00
10796, '1', 0.00, 0.00, 21.23, -4.63, 1.04, 10794, 0, 55.57, 0.00, 0.00, 0.00, 0.00, 1.00, 0, 41.70, 41.70, 7.42, 0, 1, 1.00, 0, 1.00, 0, 1.00, 0, 1.00, 0, 1.00
10797, '1', 41.53, 10.61, 21.23, -4.63, 1.04, 10794, 0, 62.55, 0.00, 0.00, 0.00, 0.00, 1.00, 1, 41.70, 41.70, 8.83, 0, 1, 1.00, 0, 1.00, 0, 1.00, 0, 1.00, 0, 1.00
10797, '1', 41.53, 10.61, 21.23, -4.63, 1.04, 10794, 0, 41.70, 0.00, 0.00, 0.00, 0.00, 1.00, 1, 41.70, 41.70, 16.64, 0, 1, 1.00, 0, 1.00, 0, 1.00, 0, 1.00, 0, 1.00
10798, '1', 41.53, -4.63, 21.23, -4.63, 1.03, 10795, 0, 41.70, 0.00, 0.00, 0.00, 0.00, 1.00, 1, 41.70, 41.70, 13.81, 0, 1, 1.00, 0, 1.00, 0, 1.00, 0, 1.00, 0, 1.00
10800, '1', 82.34, -14.08, 20.83, -14.08, 1.04, 0, 0, 129.15, 0.00, 0.00, 0.00, 0.00, 1.00, 1, 97.80, 82.34, 82.34, 0, 1, 1.00, 0, 1.00, 0, 1.00, 0, 1.00, 1, 1.00
10802, '1', 10.22, 4.61, 4.61, -0.59, 1.04, 10801, 0, 14.15, 0.00, 0.00, 0.00, 0.00, 1.00, 1, 12.00, 10.22, 10.22, 0, 1, 1.00, 0, 1.00, 0, 1.00, 0, 1.00, 0, 1.00
10803, '1', 12.00, 4.61, 4.61, -0.59, 1.04, 10801, 0, 12.12, 0.00, 0.00, 0.00, 0.00, 1.00, 1, 12.00, 12.00, 12.00, 0, 1, 1.00, 0, 1.00, 0, 1.00, 0, 1.00, 0, 1.00
10806, '1', 34.74, -2.23, 17.51, -2.23, 1.02, 10805, 0, 52.42, 0.00, 0.00, 0.00, 0.00, 1.00, 1, 45.60, 34.74, 34.74, 0, 1, 1.00, 0, 1.00, 0, 1.00, 0, 1.00, 0, 1.00
10806, '1', 42.97, -2.23, 17.51, -2.23, 1.02, 10805, 0, 61.48, 0.00, 0.00, 0.00, 0.00, 1.00, 1, 45.60, 42.97, 42.97, 0, 1, 1.00, 0, 1.00, 0, 1.00, 0, 1.00, 0, 1.00
10807, '1', 0.00, 0.00, 17.51, -2.23, 1.03, 10805, 0, 68.40, 0.00, 0.00, 0.00, 0.00, 1.00, 0, 45.60, 45.60, 21.01, 0, 1, 1.00, 0, 1.00, 0, 1.00, 0, 1.00, 0, 1.00
10807, '1', 30.26, -2.23, 17.51, -2.23, 1.03, 10805, 0, 51.24, 0.00, 0.00, 0.00, 0.00, 1.00, 1, 45.60, 30.26, 30.26, 0, 1, 1.00, 0, 1.00, 0, 1.00, 0, 1.00, 0, 1.00
10811, '1', 1195.12, 296.98, 441.60, -98.40, 1.07, 10808, 0, 1400.38, 0.00, 0.00, 0.00, 0.00, 1.00, 1, 1200.00, 1200.00, 469.13, 0, 1, 1.00, 0, 1.00, 0, 1.00, 0, 1.00, 0, 1.00
10813, '1', 56.32, -3.28, 25.73, -3.28, 1.02, 0, 0, 74.50, 0.00, 0.00, 0.00, 0.00, 1.00, 1, 67.00, 56.32, 56.32, 0, 1, 1.00, 0, 1.00, 0, 1.00, 0, 1.00, 0, 1.00
10813, '1', 0.00, 0.00, 25.73, -3.28, 1.02, 0, 0, 91.70, 0.00, 0.00, 0.00, 0.00, 1.00, 0, 67.00, 67.00, 30.37, 0, 1, 1.00, 0, 1.00, 0, 1.00, 0, 1.00, 0, 1.00
10817, '1', 50.70, 0.00, 0.00, 0.00, 1.04, 0, 0, 68.96, 0.00, 0.00, 0.00, 0.00, 1.00, 1, 50.70, 50.70, 50.70, 0, 1, 1.00, 0, 1.00, 0, 1.00, 0, 1.00, 1, 1.00
10818, '1', 0.00, 0.00, 0.00, 0.00, 1.04, 0, 0, 7.20, 0.00, 0.00, 0.00, 0.00, 1.00, 0, 7.20, 7.20, 2.33, 0, 1, 1.00, 0, 1.00, 0, 1.00, 0, 1.00, 1, 1.00
10821, '1', 0.00, 0.00, 32.21, -21.77, 1.04, 10820, 0, 208.02, 0.00, 0.00, 0.00, 0.00, 1.00, 0, 151.20, 151.20, 63.85, 0, 1, 1.00, 0, 1.00, 0, 1.00, 0, 1.00, 1, 1.00
10829, '1', 75.24, -6.62, 51.84, -6.62, 1.02, 10824, 0, 168.30, 0.00, 0.00, 0.00, 0.00, 1.00, 1, 135.00, 75.24, 75.24, 0, 1, 1.00, 0, 1.00, 0, 1.00, 0, 1.00, 0, 1.00
10830, '1', 135.00, -6.62, 51.84, -6.62, 1.02, 10824, 0, 159.70, 0.00, 0.00, 0.00, 0.00, 1.00, 1, 135.00, 135.00, 135.00, 0, 1, 1.00, 0, 1.00, 0, 1.00, 0, 1.00, 0, 1.00
10831, '1', 106.15, -6.62, 51.84, -6.62, 1.02, 10824, 0, 152.07, 0.00, 0.00, 0.00, 0.00, 1.00, 1, 135.00, 106.15, 106.15, 0, 1, 1.00, 0, 1.00, 0, 1.00, 0, 1.00, 0, 1.00
10832, '1', 135.00, -6.62, 51.84, -6.62, 1.02, 10824, 0, 143.54, 0.00, 0.00, 0.00, 0.00, 1.00, 1, 135.00, 135.00, 135.00, 0, 1, 1.00, 0, 1.00, 0, 1.00, 0, 1.00, 0, 1.00
10833, '1', 88.14, -6.62, 51.84, -6.62, 1.02, 10824, 0, 177.11, 0.00, 0.00, 0.00, 0.00, 1.00, 1, 135.00, 88.14, 88.14, 0, 1, 1.00, 0, 1.00, 0, 1.00, 0, 1.00, 0, 1.00
10834, '1', 75.59, -6.62, 51.84, -6.62, 1.02, 10824, 0, 175.15, 0.00, 0.00, 0.00, 0.00, 1.00, 1, 135.00, 75.59, 75.59, 0, 1, 1.00, 0, 1.00, 0, 1.00, 0, 1.00, 0, 1.00
10836, '1', 88.54, -9.87, 45.25, -9.87, 1.02, 0, 0, 116.35, 0.00, 0.00, 0.00, 0.00, 1.00, 1, 88.90, 88.90, 20.57, 0, 1, 1.00, 0, 1.00, 0, 1.00, 0, 1.00, 0, 1.00
10836, '1', 88.54, -9.87, 45.25, -9.87, 1.02, 0, 0, 90.43, 0.00, 0.00, 0.00, 0.00, 1.00, 1, 88.90, 88.90, 14.92, 0, 1, 1.00, 0, 1.00, 0, 1.00, 0, 1.00, 0, 1.00
10838, '1', 45.58, 0.00, 0.00, 0.00, 1.04, 0, 0, 91.58, 0.00, 0.00, 0.00, 0.00, 1.00, 1, 64.00, 45.58, 45.58, 0, 1, 1.00, 0, 1.00, 0, 1.00, 0, 1.00, 1, 1.00
10842, '1', 10.50, 4.92, 4.92, -0.63, 1.04, 0, 0, 12.80, 0.00, 0.00, 0.00, 0.00, 1.00, 1, 12.80, 10.50, 10.50, 0, 1, 1.00, 0, 1.00, 0, 1.00, 0, 1.00, 0, 1.00
10842, '1', 8.22, 4.92, 4.92, -0.63, 1.04, 0, 0, 16.02, 0.00, 0.00, 0.00, 0.00, 1.00, 1, 12.80, 8.22, 8.22, 0, 1, 1.00, 0, 1.00, 0, 1.00, 0, 1.00, 0, 1.00
10843, '1', 11.05, -0.63, 4.92, -0.63, 1.02, 0, 0, 13.06, 0.00, 0.00, 0.00, 0.00, 1.00, 1, 12.80, 11.05, 11.05, 0, 1, 1.00, 0, 1.00, 0, 1.00, 0, 1.00, 0, 1.00
10843, '1', 0.00, 0.00, 4.92, -0.63, 1.02, 0, 0, 14.28, 0.00, 0.00, 0.00, 0.00, 1.00, 0, 12.80, 12.80, 3.56, 0, 1, 1.00, 0, 1.00, 0, 1.00, 0, 1.00, 0, 1.00
10843, '1', 8.89, -0.63, 4.92, -0.63, 1.02, 0, 0, 12.80, 0.00, 0.00, 0.00, 0.00, 1.00, 1, 12.80, 8.89, 8.89, 0, 1, 1.00, 0, 1.00, 0, 1.00, 0, 1.00, 0, 1.00
10847, '1', 100.50, -4.92, 38.59, -4.92, 1.04, 10844, 0, 118.86, 0.00, 0.00, 0.00, 0.00, 1.00, 1, 100.50, 100.50, 100.50, 0, 1, 1.00, 0, 1.00, 0, 1.00, 0, 1.00, 0, 1.00
10848, '1', 78.52, -4.92, 38.59, -4.92, 1.04, 10844, 0, 140.04, 0.00, 0.00, 0.00, 0.00, 1.00, 1, 100.50, 78.52, 78.52, 0, 1, 1.00, 0, 1.00, 0, 1.00, 0, 1.00, 0, 1.00
10849, '1', 83.39, -4.92, 38.59, -4.92, 1.04, 10844, 0, 128.45, 0.00, 0.00, 0.00, 0.00, 1.00, 1, 100.50, 83.39, 83.39, 0, 1, 1.00, 0, 1.00, 0, 1.00, 0, 1.00, 0, 1.00
10850, '1', 87.30, -4.92, 38.59, -4.92, 1.04, 10844, 0, 120.81, 0.00, 0.00, 0.00, 0.00, 1.00, 1, 100.50, 87.30, 87.30, 0, 1, 1.00, 0, 1.00, 0, 1.00, 0, 1.00, 0, 1.00
10851, '1', 80.36, -4.92, 38.59, -4.92, 1.04, 10844, 0, 108.12, 0.00, 0.00, 0.00, 0.00, 1.00, 1, 100.50, 80.36, 80.36, 0, 1, 1.00, 0, 1.00, 0, 1.00, 0, 1.00, 0, 1.00
10852, '1', 99.06, -4.92, 38.59, -4.92, 1.04, 10844, 0, 100.50, 0.00, 0.00, 0.00, 0.00, 1.00, 1, 100.50, 99.06, 99.06, 0, 1, 1.00, 0, 1.00, 0, 1.00, 0, 1.00, 0, 1.00
10853, '1', 0.00, 0.00, 3.84, -0.49, 1.04, 10844, 0, 13.29, 0.00, 0.00, 0.00, 0.00, 1.00, 0, 10.00, 10.00, 3.43, 0, 1, 1.00, 0, 1.00, 0, 1.00, 0, 1.00, 0, 1.00
10859, '1', 0.00, 0.00, 340.13, -89.05, 1.04, 10856, 0, 844.80, 0.00, 0.00, 0.00, 0.00, 1.00, 0, 729.90, 729.90, 357.25, 0, 1, 1.00, 0, 1.00, 0, 1.00, 0, 1.00, 0, 1.00
10860, '1', 322.89, -89.05, 340.13, -89.05, 1.03, 10856, 0, 887.05, 0.00, 0.00, 0.00, 0.00, 1.00, 1, 729.90, 729.90, 312.19, 0, 1, 1.00, 0, 1.00, 0, 1.00, 0, 1.00, 0, 1.00
10864, '1', 103.61, 57.60, 57.60, -7.35, 1.01, 10862, 0, 187.87, 0.00, 0.00, 0.00, 0.00, 1.00, 1, 150.00, 103.61, 103.61, 0, 1, 1.00, 0, 1.00, 0, 1.00, 0, 1.00, 0, 1.00
10865, '1', 110.96, 57.60, 57.60, -7.35, 1.01, 10862, 0, 209.00, 0.00, 0.00, 0.00, 0.00, 1.00, 1, 150.00, 110.96, 110.96, 0, 1, 1.00, 0, 1.00, 0, 1.00, 0, 1.00, 0, 1.00
10867, '1', 11.12, -0.74, 5.76, -0.74, 0.98, 10866, 0, 15.21, 0.00, 0.00, 0.00, 0.00, 1.00, 1, 15.00, 11.12, 11.12, 0, 1, 1.00, 0, 1.00, 0, 1.00, 0, 1.00, 0, 1.00
10867, '1', 11.39, -0.74, 5.76, -0.74, 0.98, 10866, 0, 20.37, 0.00, 0.00, 0.00, 0.00, 1.00, 1, 15.00, 11.39, 11.39, 0, 1, 1.00, 0, 1.00, 0, 1.00, 0, 1.00, 0, 1.00
10869, '1', 0.00, 0.00, 3.84, -0.49, 1.01, 10868, 0, 10.00, 0.00, 0.00, 0.00, 0.00, 1.00, 0, 10.00, 10.00, 3.11, 0, 1, 1.00, 0, 1.00, 0, 1.00, 0, 1.00, 0, 1.00
10869, '1', 10.00, 3.84, 3.84, -0.49, 1.01, 10868, 0, 11.12, 0.00, 0.00, 0.00, 0.00, 1.00, 1, 10.00, 10.00, 10.00, 0, 1, 1.00, 0, 1.00, 0, 1.00, 0, 1.00, 0, 1.00
...